
     RDKit          2D

 30 33  0  0  0  0  0  0  0  0999 V2000
    3.7500   -1.2990    0.0000 N   0  0  0  0  0  0  0  0  0  0  0  0
    3.0000    0.0000    0.0000 C   0  0  0  0  0  0  0  0  0  0  0  0
    1.5000    0.0000    0.0000 C   0  0  0  0  0  0  0  0  0  0  0  0
    0.7500   -1.2990    0.0000 C   0  0  0  0  0  0  0  0  0  0  0  0
   -0.7500   -1.2990    0.0000 C   0  0  0  0  0  0  0  0  0  0  0  0
   -1.5000    0.0000    0.0000 C   0  0  0  0  0  0  0  0  0  0  0  0
   -0.7500    1.2990    0.0000 C   0  0  0  0  0  0  0  0  0  0  0  0
    0.7500    1.2990    0.0000 C   0  0  0  0  0  0  0  0  0  0  0  0
   -1.5000    2.5981    0.0000 C   0  0  0  0  0  0  0  0  0  0  0  0
   -0.7500    3.8971    0.0000 C   0  0  0  0  0  0  0  0  0  0  0  0
   -1.5000    5.1962    0.0000 C   0  0  0  0  0  0  0  0  0  0  0  0
   -3.0000    5.1962    0.0000 N   0  0  0  0  0  0  0  0  0  0  0  0
   -3.7500    3.8971    0.0000 C   0  0  0  0  0  0  0  0  0  0  0  0
   -3.0000    2.5981    0.0000 C   0  0  0  0  0  0  0  0  0  0  0  0
   -3.7500    6.4952    0.0000 C   0  0  0  0  0  0  0  0  0  0  0  0
   -5.2500    6.4952    0.0000 O   0  0  0  0  0  0  0  0  0  0  0  0
   -3.0000    7.7942    0.0000 C   0  0  0  0  0  0  0  0  0  0  0  0
   -3.6101    9.1645    0.0000 C   0  0  0  0  0  0  0  0  0  0  0  0
   -2.4954   10.1682    0.0000 C   0  0  0  0  0  0  0  0  0  0  0  0
   -1.1963    9.4182    0.0000 C   0  0  0  0  0  0  0  0  0  0  0  0
   -1.5082    7.9510    0.0000 O   0  0  0  0  0  0  0  0  0  0  0  0
    0.1740   10.0283    0.0000 C   0  0  0  0  0  0  0  0  0  0  0  0
    1.5443   10.6385    0.0000 C   0  0  0  0  0  0  0  0  0  0  0  0
    2.9146   11.2486    0.0000 C   0  0  0  0  0  0  0  0  0  0  0  0
    4.1281   10.3669    0.0000 C   0  0  0  0  0  0  0  0  0  0  0  0
    5.4984   10.9770    0.0000 C   0  0  0  0  0  0  0  0  0  0  0  0
    5.6552   12.4688    0.0000 C   0  0  0  0  0  0  0  0  0  0  0  0
    4.4417   13.3504    0.0000 C   0  0  0  0  0  0  0  0  0  0  0  0
    3.0714   12.7403    0.0000 C   0  0  0  0  0  0  0  0  0  0  0  0
    1.8579   13.6220    0.0000 F   0  0  0  0  0  0  0  0  0  0  0  0
  1  2  1  0
  2  3  1  0
  3  4  2  0
  4  5  1  0
  5  6  2  0
  6  7  1  0
  7  8  2  0
  7  9  1  0
  9 10  1  0
 10 11  1  0
 11 12  1  0
 12 13  1  0
 13 14  1  0
 12 15  1  0
 15 16  2  0
 15 17  1  0
 17 18  2  0
 18 19  1  0
 19 20  2  0
 20 21  1  0
 20 22  1  0
 22 23  3  0
 23 24  1  0
 24 25  2  0
 25 26  1  0
 26 27  2  0
 27 28  1  0
 28 29  2  0
 29 30  1  0
  8  3  1  0
 14  9  1  0
 21 17  1  0
 29 24  1  0
M  END
$$$$
