
     RDKit          2D

 42 46  0  0  0  0  0  0  0  0999 V2000
   -0.8113   -8.6446    0.0000 C   0  0  0  0  0  0  0  0  0  0  0  0
    0.4022   -7.7629    0.0000 C   0  0  0  0  0  0  0  0  0  0  0  0
    0.2454   -6.2711    0.0000 N   0  0  0  0  0  0  0  0  0  0  0  0
    1.3601   -5.2674    0.0000 N   0  0  0  0  0  0  0  0  0  0  0  0
    0.7500   -3.8971    0.0000 C   0  0  0  0  0  0  0  0  0  0  0  0
    1.5000   -2.5981    0.0000 C   0  0  0  0  0  0  0  0  0  0  0  0
    0.7500   -1.2990    0.0000 C   0  0  0  0  0  0  0  0  0  0  0  0
    1.5000    0.0000    0.0000 C   0  0  0  0  0  0  0  0  0  0  0  0
    0.7500    1.2990    0.0000 C   0  0  0  0  0  0  0  0  0  0  0  0
   -0.7500    1.2990    0.0000 C   0  0  0  0  0  0  0  0  0  0  0  0
   -1.5000    0.0000    0.0000 C   0  0  0  0  0  0  0  0  0  0  0  0
   -0.7500   -1.2990    0.0000 C   0  0  0  0  0  0  0  0  0  0  0  0
   -0.7418   -4.0539    0.0000 C   0  0  0  0  0  0  0  0  0  0  0  0
   -1.0537   -5.5211    0.0000 C   0  0  0  0  0  0  0  0  0  0  0  0
   -2.4240   -6.1312    0.0000 C   0  0  0  0  0  0  0  0  0  0  0  0
   -3.6375   -5.2496    0.0000 C   0  0  0  0  0  0  0  0  0  0  0  0
   -5.0078   -5.8597    0.0000 C   0  0  0  0  0  0  0  0  0  0  0  0
   -5.1646   -7.3514    0.0000 N   0  0  0  0  0  0  0  0  0  0  0  0
   -6.5349   -7.9615    0.0000 C   0  0  0  0  0  0  0  0  0  0  0  0
   -7.7484   -7.0799    0.0000 C   0  0  0  0  0  0  0  0  0  0  0  0
   -7.7484   -5.5799    0.0000 C   0  0  0  0  0  0  0  0  0  0  0  0
   -9.1750   -5.1163    0.0000 C   0  0  0  0  0  0  0  0  0  0  0  0
  -10.0567   -6.3299    0.0000 C   0  0  0  0  0  0  0  0  0  0  0  0
   -9.1750   -7.5434    0.0000 C   0  0  0  0  0  0  0  0  0  0  0  0
   -9.6386   -8.9700    0.0000 C   0  0  0  0  0  0  0  0  0  0  0  0
   -8.6349  -10.0847    0.0000 C   0  0  0  0  0  0  0  0  0  0  0  0
   -9.0984  -11.5113    0.0000 C   0  0  0  0  0  0  0  0  0  0  0  0
  -10.5656  -11.8232    0.0000 C   0  0  0  0  0  0  0  0  0  0  0  0
  -11.5693  -10.7084    0.0000 C   0  0  0  0  0  0  0  0  0  0  0  0
  -13.0365  -11.0203    0.0000 F   0  0  0  0  0  0  0  0  0  0  0  0
  -11.1058   -9.2818    0.0000 C   0  0  0  0  0  0  0  0  0  0  0  0
   -9.6386   -3.6898    0.0000 N   0  0  0  0  0  0  0  0  0  0  0  0
  -11.1058   -3.3779    0.0000 C   0  0  0  0  0  0  0  0  0  0  0  0
   -8.6349   -2.5750    0.0000 C   0  0  0  0  0  0  0  0  0  0  0  0
   -9.0984   -1.1485    0.0000 C   0  0  0  0  0  0  0  0  0  0  0  0
   -8.0947   -0.0337    0.0000 C   0  0  0  0  0  0  0  0  0  0  0  0
  -10.5656   -0.8366    0.0000 C   0  0  0  0  0  0  0  0  0  0  0  0
   -7.1676   -2.8869    0.0000 C   0  0  0  0  0  0  0  0  0  0  0  0
   -6.1639   -1.7722    0.0000 O   0  0  0  0  0  0  0  0  0  0  0  0
   -6.7041   -4.3135    0.0000 O   0  0  0  0  0  0  0  0  0  0  0  0
   -3.9511   -8.2331    0.0000 C   0  0  0  0  0  0  0  0  0  0  0  0
   -2.5808   -7.6230    0.0000 C   0  0  0  0  0  0  0  0  0  0  0  0
  1  2  1  0
  2  3  1  0
  3  4  1  0
  4  5  2  0
  5  6  1  0
  6  7  1  0
  7  8  2  0
  8  9  1  0
  9 10  2  0
 10 11  1  0
 11 12  2  0
  5 13  1  0
 13 14  2  0
 14 15  1  0
 15 16  1  0
 16 17  1  0
 17 18  1  0
 18 19  1  0
 19 20  1  0
 20 21  1  0
 21 22  1  0
 22 23  1  0
 23 24  1  0
 24 25  1  0
 25 26  2  0
 26 27  1  0
 27 28  2  0
 28 29  1  0
 29 30  1  0
 29 31  2  0
 22 32  1  0
 32 33  1  0
 32 34  1  0
 34 35  1  0
 35 36  1  0
 35 37  1  0
 34 38  1  0
 38 39  1  0
 38 40  2  0
 18 41  1  0
 41 42  1  0
 14  3  1  0
 42 15  1  0
 12  7  1  0
 24 20  1  0
 31 25  1  0
M  END
$$$$
