
     RDKit          2D

 27 26  0  0  0  0  0  0  0  0999 V2000
    0.0000    0.0000    0.0000 C   0  0  0  0  0  0  0  0  0  0  0  0
    1.2990    0.7500    0.0000 C   0  0  0  0  0  0  0  0  0  0  0  0
    2.5981   -0.0000    0.0000 C   0  0  0  0  0  0  0  0  0  0  0  0
    1.2990    2.2500    0.0000 C   0  0  0  0  0  0  0  0  0  0  0  0
    0.0000    3.0000    0.0000 O   0  0  0  0  0  0  0  0  0  0  0  0
    2.5981    3.0000    0.0000 O   0  0  0  0  0  0  0  0  0  0  0  0
    2.5981    4.5000    0.0000 C   0  0  0  0  0  0  0  0  0  0  0  0
    3.8971    5.2500    0.0000 C   0  0  0  0  0  0  0  0  0  0  0  0
    3.8971    6.7500    0.0000 C   0  0  0  0  0  0  0  0  0  0  0  0
    5.3971    6.7500    0.0000 F   0  0  0  0  0  0  0  0  0  0  0  0
    2.3971    6.7500    0.0000 F   0  0  0  0  0  0  0  0  0  0  0  0
    3.8971    8.2500    0.0000 C   0  0  0  0  0  0  0  0  0  0  0  0
    2.3971    8.2500    0.0000 F   0  0  0  0  0  0  0  0  0  0  0  0
    5.3971    8.2500    0.0000 F   0  0  0  0  0  0  0  0  0  0  0  0
    3.8971    9.7500    0.0000 C   0  0  0  0  0  0  0  0  0  0  0  0
    5.3971    9.7500    0.0000 F   0  0  0  0  0  0  0  0  0  0  0  0
    2.3971    9.7500    0.0000 F   0  0  0  0  0  0  0  0  0  0  0  0
    3.8971   11.2500    0.0000 C   0  0  0  0  0  0  0  0  0  0  0  0
    2.3971   11.2500    0.0000 F   0  0  0  0  0  0  0  0  0  0  0  0
    5.3971   11.2500    0.0000 F   0  0  0  0  0  0  0  0  0  0  0  0
    3.8971   12.7500    0.0000 C   0  0  0  0  0  0  0  0  0  0  0  0
    5.3971   12.7500    0.0000 F   0  0  0  0  0  0  0  0  0  0  0  0
    2.3971   12.7500    0.0000 F   0  0  0  0  0  0  0  0  0  0  0  0
    3.8971   14.2500    0.0000 C   0  0  0  0  0  0  0  0  0  0  0  0
    3.8971   15.7500    0.0000 F   0  0  0  0  0  0  0  0  0  0  0  0
    2.3971   14.2500    0.0000 F   0  0  0  0  0  0  0  0  0  0  0  0
    5.3971   14.2500    0.0000 F   0  0  0  0  0  0  0  0  0  0  0  0
  1  2  1  0
  2  3  2  0
  2  4  1  0
  4  5  2  0
  4  6  1  0
  6  7  1  0
  7  8  1  0
  8  9  1  0
  9 10  1  0
  9 11  1  0
  9 12  1  0
 12 13  1  0
 12 14  1  0
 12 15  1  0
 15 16  1  0
 15 17  1  0
 15 18  1  0
 18 19  1  0
 18 20  1  0
 18 21  1  0
 21 22  1  0
 21 23  1  0
 21 24  1  0
 24 25  1  0
 24 26  1  0
 24 27  1  0
M  END
$$$$
