
     RDKit          2D

 40 46  0  0  0  0  0  0  0  0999 V2000
    3.7500   -1.2990    0.0000 C   0  0  0  0  0  0  0  0  0  0  0  0
    3.0000    0.0000    0.0000 O   0  0  0  0  0  0  0  0  0  0  0  0
    1.5000    0.0000    0.0000 C   0  0  0  0  0  0  0  0  0  0  0  0
    0.7500   -1.2990    0.0000 C   0  0  0  0  0  0  0  0  0  0  0  0
   -0.7500   -1.2990    0.0000 C   0  0  0  0  0  0  0  0  0  0  0  0
   -1.5000    0.0000    0.0000 C   0  0  0  0  0  0  0  0  0  0  0  0
   -0.7500    1.2990    0.0000 C   0  0  0  0  0  0  0  0  0  0  0  0
    0.7500    1.2990    0.0000 C   0  0  0  0  0  0  0  0  0  0  0  0
    1.5000    2.5981    0.0000 C   0  0  0  0  0  0  0  0  0  0  0  0
    2.9672    2.9099    0.0000 C   0  0  0  0  0  0  0  0  0  0  0  0
    3.1240    4.4017    0.0000 N   0  0  0  0  0  0  0  0  0  0  0  0
    4.4231    5.1517    0.0000 C   0  0  0  0  0  0  0  0  0  0  0  0
    5.7221    4.4017    0.0000 C   0  0  0  0  0  0  0  0  0  0  0  0
    7.0211    5.1517    0.0000 C   0  0  0  0  0  0  0  0  0  0  0  0
    8.3202    4.4017    0.0000 C   0  0  0  0  0  0  0  0  0  0  0  0
    9.6192    5.1517    0.0000 N   0  0  0  0  0  0  0  0  0  0  0  0
    9.6192    6.6517    0.0000 C   0  0  0  0  0  0  0  0  0  0  0  0
    8.3202    7.4017    0.0000 O   0  0  0  0  0  0  0  0  0  0  0  0
   10.9182    7.4017    0.0000 N   0  0  0  0  0  0  0  0  0  0  0  0
   12.2173    6.6517    0.0000 C   0  0  0  0  0  0  0  0  0  0  0  0
   12.2173    5.1517    0.0000 C   0  0  0  0  0  0  0  0  0  0  0  0
   13.6439    4.6882    0.0000 S   0  0  0  0  0  0  0  0  0  0  0  0
   14.5255    5.9017    0.0000 C   0  0  0  0  0  0  0  0  0  0  0  0
   16.0173    6.0585    0.0000 N   0  0  0  0  0  0  0  0  0  0  0  0
   16.6274    7.4288    0.0000 C   0  0  0  0  0  0  0  0  0  0  0  0
   15.7458    8.6424    0.0000 C   0  0  0  0  0  0  0  0  0  0  0  0
   14.2540    8.4856    0.0000 N   0  0  0  0  0  0  0  0  0  0  0  0
   13.6439    7.1153    0.0000 C   0  0  0  0  0  0  0  0  0  0  0  0
   16.3559   10.0127    0.0000 C   0  0  0  0  0  0  0  0  0  0  0  0
   17.8476   10.1695    0.0000 C   0  0  0  0  0  0  0  0  0  0  0  0
   18.4577   11.5398    0.0000 C   0  0  0  0  0  0  0  0  0  0  0  0
   17.5761   12.7533    0.0000 C   0  0  0  0  0  0  0  0  0  0  0  0
   16.0843   12.5965    0.0000 C   0  0  0  0  0  0  0  0  0  0  0  0
   15.4742   11.2262    0.0000 C   0  0  0  0  0  0  0  0  0  0  0  0
   10.9182    4.4017    0.0000 C   0  0  0  0  0  0  0  0  0  0  0  0
   10.9182    2.9017    0.0000 O   0  0  0  0  0  0  0  0  0  0  0  0
    1.7537    5.0118    0.0000 C   0  0  0  0  0  0  0  0  0  0  0  0
    0.7500    3.8971    0.0000 C   0  0  0  0  0  0  0  0  0  0  0  0
   -0.7500    3.8971    0.0000 C   0  0  0  0  0  0  0  0  0  0  0  0
   -1.5000    2.5981    0.0000 O   0  0  0  0  0  0  0  0  0  0  0  0
  1  2  1  0
  2  3  1  0
  3  4  2  0
  4  5  1  0
  5  6  2  0
  6  7  1  0
  7  8  2  0
  8  9  1  0
  9 10  1  0
 10 11  1  0
 11 12  1  0
 12 13  1  0
 13 14  1  0
 14 15  1  0
 15 16  1  0
 16 17  1  0
 17 18  2  0
 17 19  1  0
 19 20  1  0
 20 21  2  0
 21 22  1  0
 22 23  1  0
 23 24  2  0
 24 25  1  0
 25 26  2  0
 26 27  1  0
 27 28  2  0
 26 29  1  0
 29 30  2  0
 30 31  1  0
 31 32  2  0
 32 33  1  0
 33 34  2  0
 21 35  1  0
 35 36  2  0
 11 37  1  0
 37 38  1  0
 38 39  1  0
 39 40  1  0
  8  3  1  0
 38  9  1  0
 40  7  1  0
 35 16  1  0
 28 20  1  0
 34 29  1  0
 28 23  1  0
M  END
$$$$
