
     RDKit          2D

 22 21  0  0  0  0  0  0  0  0999 V2000
   -1.2990    0.7500    0.0000 O   0  0  0  0  0  0  0  0  0  0  0  0
    0.0000    0.0000    0.0000 C   0  0  0  0  0  0  0  0  0  0  0  0
    1.2990    0.7500    0.0000 C   0  0  0  0  0  0  0  0  0  0  0  0
    2.5981   -0.0000    0.0000 C   0  0  0  0  0  0  0  0  0  0  0  0
    3.3481    1.2990    0.0000 F   0  0  0  0  0  0  0  0  0  0  0  0
    1.8481   -1.2990    0.0000 F   0  0  0  0  0  0  0  0  0  0  0  0
    3.8971   -0.7500    0.0000 C   0  0  0  0  0  0  0  0  0  0  0  0
    3.1471   -2.0490    0.0000 F   0  0  0  0  0  0  0  0  0  0  0  0
    4.6471    0.5490    0.0000 F   0  0  0  0  0  0  0  0  0  0  0  0
    5.1962   -1.5000    0.0000 C   0  0  0  0  0  0  0  0  0  0  0  0
    5.9462   -0.2010    0.0000 F   0  0  0  0  0  0  0  0  0  0  0  0
    4.4462   -2.7990    0.0000 F   0  0  0  0  0  0  0  0  0  0  0  0
    6.4952   -2.2500    0.0000 C   0  0  0  0  0  0  0  0  0  0  0  0
    5.7452   -3.5490    0.0000 F   0  0  0  0  0  0  0  0  0  0  0  0
    7.2452   -0.9510    0.0000 F   0  0  0  0  0  0  0  0  0  0  0  0
    7.7942   -3.0000    0.0000 C   0  0  0  0  0  0  0  0  0  0  0  0
    8.5442   -1.7010    0.0000 F   0  0  0  0  0  0  0  0  0  0  0  0
    7.0442   -4.2990    0.0000 F   0  0  0  0  0  0  0  0  0  0  0  0
    9.0933   -3.7500    0.0000 C   0  0  0  0  0  0  0  0  0  0  0  0
   10.3923   -4.5000    0.0000 F   0  0  0  0  0  0  0  0  0  0  0  0
    8.3433   -5.0490    0.0000 F   0  0  0  0  0  0  0  0  0  0  0  0
    9.8433   -2.4510    0.0000 F   0  0  0  0  0  0  0  0  0  0  0  0
  1  2  1  0
  2  3  1  0
  3  4  1  0
  4  5  1  0
  4  6  1  0
  4  7  1  0
  7  8  1  0
  7  9  1  0
  7 10  1  0
 10 11  1  0
 10 12  1  0
 10 13  1  0
 13 14  1  0
 13 15  1  0
 13 16  1  0
 16 17  1  0
 16 18  1  0
 16 19  1  0
 19 20  1  0
 19 21  1  0
 19 22  1  0
M  END
$$$$
