
     RDKit          2D

 42 48  0  0  0  0  0  0  0  0999 V2000
    0.1554    8.9037    0.0000 C   0  0  0  0  0  0  0  0  0  0  0  0
   -1.3119    9.2156    0.0000 C   0  0  0  0  0  0  0  0  0  0  0  0
   -1.7754   10.6422    0.0000 C   0  0  0  0  0  0  0  0  0  0  0  0
   -2.3156    8.1009    0.0000 C   0  0  0  0  0  0  0  0  0  0  0  0
   -3.7828    8.4128    0.0000 C   0  0  0  0  0  0  0  0  0  0  0  0
   -4.7865    7.2980    0.0000 N   0  0  0  0  0  0  0  0  0  0  0  0
   -4.6297    5.8063    0.0000 C   0  0  0  0  0  0  0  0  0  0  0  0
   -3.3306    5.0563    0.0000 O   0  0  0  0  0  0  0  0  0  0  0  0
   -6.0000    5.1962    0.0000 C   0  0  0  0  0  0  0  0  0  0  0  0
   -5.2500    3.8971    0.0000 N   0  0  0  0  0  0  0  0  0  0  0  0
   -6.0000    2.5981    0.0000 C   0  0  0  0  0  0  0  0  0  0  0  0
   -6.9768    2.4781    0.0000 O   0  0  0  0  0  0  0  0  0  0  0  0
   -5.2500    1.2990    0.0000 C   0  0  0  0  0  0  0  0  0  0  0  0
   -3.7500    1.2990    0.0000 C   0  0  0  0  0  0  0  0  0  0  0  0
   -3.0000    0.0000    0.0000 C   0  0  0  0  0  0  0  0  0  0  0  0
   -3.7500   -1.2990    0.0000 C   0  0  0  0  0  0  0  0  0  0  0  0
   -3.0000   -2.5981    0.0000 C   0  0  0  0  0  0  0  0  0  0  0  0
   -1.5000   -2.5981    0.0000 C   0  0  0  0  0  0  0  0  0  0  0  0
   -0.3853   -3.6018    0.0000 C   0  0  0  0  0  0  0  0  0  0  0  0
    0.9138   -2.8518    0.0000 N   0  0  0  0  0  0  0  0  0  0  0  0
    0.7500   -1.2990    0.0000 C   0  0  0  0  0  0  0  0  0  0  0  0
    1.5000    0.0000    0.0000 C   0  0  0  0  0  0  0  0  0  0  0  0
    0.7500    1.2990    0.0000 C   0  0  0  0  0  0  0  0  0  0  0  0
   -0.7500    1.2990    0.0000 C   0  0  0  0  0  0  0  0  0  0  0  0
   -1.5000    0.0000    0.0000 C   0  0  0  0  0  0  0  0  0  0  0  0
   -0.7500   -1.2990    0.0000 C   0  0  0  0  0  0  0  0  0  0  0  0
   -5.2500   -1.2990    0.0000 N   0  0  0  0  0  0  0  0  0  0  0  0
   -6.0000   -2.5981    0.0000 C   0  0  0  0  0  0  0  0  0  0  0  0
   -6.0000    0.0000    0.0000 C   0  0  0  0  0  0  0  0  0  0  0  0
   -7.0037    6.3109    0.0000 O   0  0  0  0  0  0  0  0  0  0  0  0
   -6.2537    7.6099    0.0000 C   0  0  0  0  0  0  0  0  0  0  0  0
   -7.7455    7.7667    0.0000 O   0  0  0  0  0  0  0  0  0  0  0  0
   -6.7172    9.0365    0.0000 C   0  0  0  0  0  0  0  0  0  0  0  0
   -8.0875    9.6466    0.0000 C   0  0  0  0  0  0  0  0  0  0  0  0
   -7.9307   11.1384    0.0000 C   0  0  0  0  0  0  0  0  0  0  0  0
   -6.4635   11.4502    0.0000 C   0  0  0  0  0  0  0  0  0  0  0  0
   -5.7135   10.1512    0.0000 N   0  0  0  0  0  0  0  0  0  0  0  0
   -4.2463    9.8393    0.0000 C   0  0  0  0  0  0  0  0  0  0  0  0
   -3.2426   10.9541    0.0000 O   0  0  0  0  0  0  0  0  0  0  0  0
   -7.2135    4.3145    0.0000 C   0  0  0  0  0  0  0  0  0  0  0  0
   -7.2307    3.3305    0.0000 C   0  0  0  0  0  0  0  0  0  0  0  0
   -8.5838    4.9246    0.0000 C   0  0  0  0  0  0  0  0  0  0  0  0
  1  2  1  0
  2  3  1  0
  2  4  1  0
  4  5  1  0
  5  6  1  0
  6  7  1  0
  7  8  2  0
  7  9  1  0
  9 10  1  0
 10 11  1  0
 11 12  2  0
 11 13  1  0
 13 14  1  0
 14 15  1  0
 15 16  1  0
 16 17  1  0
 17 18  1  0
 18 19  2  0
 19 20  1  0
 20 21  1  0
 21 22  2  0
 22 23  1  0
 23 24  2  0
 24 25  1  0
 25 26  2  0
 16 27  1  0
 27 28  1  0
 27 29  1  0
  9 30  1  0
 30 31  1  0
 31 32  1  0
 31 33  1  0
 33 34  1  0
 34 35  1  0
 35 36  1  0
 36 37  1  0
 37 38  1  0
 38 39  2  0
  9 40  1  0
 40 41  1  0
 40 42  1  0
 38  5  1  0
 31  6  1  0
 37 33  1  0
 29 13  1  0
 25 15  1  0
 26 18  1  0
 26 21  1  0
M  END
$$$$
