
     RDKit          2D

 21 20  0  0  0  0  0  0  0  0999 V2000
    0.0000    0.0000    0.0000 C   0  0  0  0  0  0  0  0  0  0  0  0
    1.2990    0.7500    0.0000 C   0  0  0  0  0  0  0  0  0  0  0  0
    2.5981   -0.0000    0.0000 C   0  0  0  0  0  0  0  0  0  0  0  0
    3.8971   -0.7500    0.0000 C   0  0  0  0  0  0  0  0  0  0  0  0
    3.8971   -2.2500    0.0000 O   0  0  0  0  0  0  0  0  0  0  0  0
    5.1962   -3.0000    0.0000 C   0  0  0  0  0  0  0  0  0  0  0  0
    6.4952   -2.2500    0.0000 O   0  0  0  0  0  0  0  0  0  0  0  0
    5.1962   -4.5000    0.0000 C   0  0  0  0  0  0  0  0  0  0  0  0
    6.4952   -5.2500    0.0000 C   0  0  0  0  0  0  0  0  0  0  0  0
    3.3481    1.2990    0.0000 C   0  0  0  0  0  0  0  0  0  0  0  0
    4.8481    1.2990    0.0000 O   0  0  0  0  0  0  0  0  0  0  0  0
    5.5981    2.5981    0.0000 C   0  0  0  0  0  0  0  0  0  0  0  0
    4.8481    3.8971    0.0000 O   0  0  0  0  0  0  0  0  0  0  0  0
    7.0981    2.5981    0.0000 C   0  0  0  0  0  0  0  0  0  0  0  0
    7.8481    3.8971    0.0000 C   0  0  0  0  0  0  0  0  0  0  0  0
    1.8481   -1.2990    0.0000 C   0  0  0  0  0  0  0  0  0  0  0  0
    2.5981   -2.5981    0.0000 O   0  0  0  0  0  0  0  0  0  0  0  0
    1.8481   -3.8971    0.0000 C   0  0  0  0  0  0  0  0  0  0  0  0
    0.3481   -3.8971    0.0000 O   0  0  0  0  0  0  0  0  0  0  0  0
    2.5981   -5.1962    0.0000 C   0  0  0  0  0  0  0  0  0  0  0  0
    1.8481   -6.4952    0.0000 C   0  0  0  0  0  0  0  0  0  0  0  0
  1  2  1  0
  2  3  1  0
  3  4  1  0
  4  5  1  0
  5  6  1  0
  6  7  2  0
  6  8  1  0
  8  9  2  0
  3 10  1  0
 10 11  1  0
 11 12  1  0
 12 13  2  0
 12 14  1  0
 14 15  2  0
  3 16  1  0
 16 17  1  0
 17 18  1  0
 18 19  2  0
 18 20  1  0
 20 21  2  0
M  END
$$$$
