
     RDKit          2D

 11 12  0  0  0  0  0  0  0  0999 V2000
    2.6401   -3.1891    0.0000 N   0  0  0  0  0  0  0  0  0  0  0  0
    1.2135   -2.7256    0.0000 C   0  0  0  0  0  0  0  0  0  0  0  0
   -0.0000   -3.6073    0.0000 N   0  0  0  0  0  0  0  0  0  0  0  0
   -1.2135   -2.7256    0.0000 C   0  0  0  0  0  0  0  0  0  0  0  0
   -2.6401   -3.1891    0.0000 N   0  0  0  0  0  0  0  0  0  0  0  0
   -0.7500   -1.2990    0.0000 C   0  0  0  0  0  0  0  0  0  0  0  0
    0.7500   -1.2990    0.0000 C   0  0  0  0  0  0  0  0  0  0  0  0
    1.5000    0.0000    0.0000 C   0  0  0  0  0  0  0  0  0  0  0  0
    0.7500    1.2990    0.0000 C   0  0  0  0  0  0  0  0  0  0  0  0
   -0.7500    1.2990    0.0000 C   0  0  0  0  0  0  0  0  0  0  0  0
   -1.5000    0.0000    0.0000 C   0  0  0  0  0  0  0  0  0  0  0  0
  1  2  2  0
  2  3  1  0
  3  4  1  0
  4  5  2  0
  4  6  1  0
  6  7  2  0
  7  8  1  0
  8  9  2  0
  9 10  1  0
 10 11  2  0
  7  2  1  0
 11  6  1  0
M  END
$$$$
