
     RDKit          2D

 15 14  0  0  0  0  0  0  0  0999 V2000
    0.0000    0.0000    0.0000 C   0  0  0  0  0  0  0  0  0  0  0  0
    1.2990    0.7500    0.0000 C   0  0  0  0  0  0  0  0  0  0  0  0
    2.5981   -0.0000    0.0000 O   0  0  0  0  0  0  0  0  0  0  0  0
    3.8971    0.7500    0.0000 P   0  0  0  0  0  0  0  0  0  0  0  0
    4.6471   -0.5490    0.0000 S   0  0  0  0  0  0  0  0  0  0  0  0
    5.1962    1.5000    0.0000 O   0  0  0  0  0  0  0  0  0  0  0  0
    5.1962    3.0000    0.0000 C   0  0  0  0  0  0  0  0  0  0  0  0
    6.4952    3.7500    0.0000 C   0  0  0  0  0  0  0  0  0  0  0  0
    3.1471    2.0490    0.0000 S   0  0  0  0  0  0  0  0  0  0  0  0
    3.8971    3.3481    0.0000 C   0  0  0  0  0  0  0  0  0  0  0  0
    3.1471    4.6471    0.0000 S   0  0  0  0  0  0  0  0  0  0  0  0
    3.8971    5.9462    0.0000 C   0  0  0  0  0  0  0  0  0  0  0  0
    2.5981    6.6962    0.0000 C   0  0  0  0  0  0  0  0  0  0  0  0
    5.1962    5.1962    0.0000 C   0  0  0  0  0  0  0  0  0  0  0  0
    4.6471    7.2452    0.0000 C   0  0  0  0  0  0  0  0  0  0  0  0
  1  2  1  0
  2  3  1  0
  3  4  1  0
  4  5  2  0
  4  6  1  0
  6  7  1  0
  7  8  1  0
  4  9  1  0
  9 10  1  0
 10 11  1  0
 11 12  1  0
 12 13  1  0
 12 14  1  0
 12 15  1  0
M  END
$$$$
