
     RDKit          2D

 59 63  0  0  0  0  0  0  0  0999 V2000
    0.4940    8.3646    0.0000 C   0  0  0  0  0  0  0  0  0  0  0  0
   -1.0057    8.3332    0.0000 O   0  0  0  0  0  0  0  0  0  0  0  0
   -1.7283    7.0188    0.0000 C   0  0  0  0  0  0  0  0  0  0  0  0
   -0.5195    6.1307    0.0000 C   0  0  0  0  0  0  0  0  0  0  0  0
    0.4184    4.9601    0.0000 C   0  0  0  0  0  0  0  0  0  0  0  0
    1.0212    3.5866    0.0000 O   0  0  0  0  0  0  0  0  0  0  0  0
    0.3943    1.2135    0.0000 C   0  0  0  0  0  0  0  0  0  0  0  0
    0.8578    2.6401    0.0000 C   0  0  0  0  0  0  0  0  0  0  0  0
    1.2760    0.0000    0.0000 O   0  0  0  0  0  0  0  0  0  0  0  0
    0.3943   -1.2135    0.0000 C   0  0  0  0  0  0  0  0  0  0  0  0
   -1.0323   -0.7500    0.0000 C   0  0  0  0  0  0  0  0  0  0  0  0
   -1.0323    0.7500    0.0000 C   0  0  0  0  0  0  0  0  0  0  0  0
   -2.2458    1.6317    0.0000 O   0  0  0  0  0  0  0  0  0  0  0  0
   -2.1470   -1.7537    0.0000 C   0  0  0  0  0  0  0  0  0  0  0  0
   -3.5736   -1.2902    0.0000 C   0  0  0  0  0  0  0  0  0  0  0  0
   -3.8855    0.1771    0.0000 O   0  0  0  0  0  0  0  0  0  0  0  0
   -4.6883   -2.2939    0.0000 C   0  0  0  0  0  0  0  0  0  0  0  0
   -6.1149   -1.8303    0.0000 C   0  0  0  0  0  0  0  0  0  0  0  0
   -7.2296   -2.8340    0.0000 N   0  0  0  0  0  0  0  0  0  0  0  0
   -6.9177   -4.3013    0.0000 N   0  0  0  0  0  0  0  0  0  0  0  0
   -5.4912   -4.7648    0.0000 C   0  0  0  0  0  0  0  0  0  0  0  0
   -5.1793   -6.2320    0.0000 C   0  0  0  0  0  0  0  0  0  0  0  0
   -6.2940   -7.2357    0.0000 N   0  0  0  0  0  0  0  0  0  0  0  0
   -5.9821   -8.7029    0.0000 C   0  0  0  0  0  0  0  0  0  0  0  0
   -7.7206   -6.7722    0.0000 C   0  0  0  0  0  0  0  0  0  0  0  0
   -8.0325   -5.3050    0.0000 C   0  0  0  0  0  0  0  0  0  0  0  0
   -4.3764   -3.7611    0.0000 C   0  0  0  0  0  0  0  0  0  0  0  0
   -5.8674   -3.5964    0.0000 N   0  0  0  0  0  0  0  0  0  0  0  0
   -7.2649   -3.0515    0.0000 C   0  0  0  0  0  0  0  0  0  0  0  0
   -7.9876   -4.3660    0.0000 O   0  0  0  0  0  0  0  0  0  0  0  0
   -8.4738   -2.1635    0.0000 C   0  0  0  0  0  0  0  0  0  0  0  0
   -9.5120   -3.2461    0.0000 C   0  0  0  0  0  0  0  0  0  0  0  0
   -9.4116   -0.9928    0.0000 C   0  0  0  0  0  0  0  0  0  0  0  0
  -10.0145    0.3807    0.0000 C   0  0  0  0  0  0  0  0  0  0  0  0
  -10.2413    1.8634    0.0000 C   0  0  0  0  0  0  0  0  0  0  0  0
  -10.0767    3.3544    0.0000 C   0  0  0  0  0  0  0  0  0  0  0  0
  -11.5334    3.7122    0.0000 C   0  0  0  0  0  0  0  0  0  0  0  0
   -9.5318    4.7519    0.0000 C   0  0  0  0  0  0  0  0  0  0  0  0
  -10.8462    5.4746    0.0000 O   0  0  0  0  0  0  0  0  0  0  0  0
   -8.6437    5.9608    0.0000 C   0  0  0  0  0  0  0  0  0  0  0  0
   -9.7263    6.9990    0.0000 C   0  0  0  0  0  0  0  0  0  0  0  0
   -7.4731    6.8986    0.0000 C   0  0  0  0  0  0  0  0  0  0  0  0
   -8.2501    8.1817    0.0000 O   0  0  0  0  0  0  0  0  0  0  0  0
   -6.0995    7.5015    0.0000 C   0  0  0  0  0  0  0  0  0  0  0  0
   -6.5180    8.9419    0.0000 C   0  0  0  0  0  0  0  0  0  0  0  0
   -4.6168    7.7283    0.0000 C   0  0  0  0  0  0  0  0  0  0  0  0
   -4.6482    9.2280    0.0000 O   0  0  0  0  0  0  0  0  0  0  0  0
   -3.3651   10.0050    0.0000 C   0  0  0  0  0  0  0  0  0  0  0  0
   -3.3965   11.5047    0.0000 C   0  0  0  0  0  0  0  0  0  0  0  0
   -1.9724    9.4480    0.0000 O   0  0  0  0  0  0  0  0  0  0  0  0
   -3.1259    7.5637    0.0000 C   0  0  0  0  0  0  0  0  0  0  0  0
   -2.5931    8.9659    0.0000 C   0  0  0  0  0  0  0  0  0  0  0  0
   -2.9499   -4.2246    0.0000 C   0  0  0  0  0  0  0  0  0  0  0  0
   -2.6380   -5.6918    0.0000 O   0  0  0  0  0  0  0  0  0  0  0  0
   -1.8351   -3.2209    0.0000 C   0  0  0  0  0  0  0  0  0  0  0  0
   -0.4086   -3.6844    0.0000 C   0  0  0  0  0  0  0  0  0  0  0  0
   -0.0967   -5.1517    0.0000 O   0  0  0  0  0  0  0  0  0  0  0  0
    0.7062   -2.6807    0.0000 C   0  0  0  0  0  0  0  0  0  0  0  0
    2.1328   -3.1443    0.0000 C   0  0  0  0  0  0  0  0  0  0  0  0
  1  2  1  0
  2  3  1  0
  3  4  1  0
  4  5  2  0
  5  6  1  0
  6  7  1  0
  7  8  1  0
  7  9  1  0
  9 10  1  0
 10 11  2  0
 11 12  1  0
 12 13  2  0
 11 14  1  0
 14 15  2  0
 15 16  1  0
 15 17  1  0
 17 18  1  0
 18 19  2  3
 19 20  1  0
 20 21  1  0
 21 22  1  0
 22 23  1  0
 23 24  1  0
 23 25  1  0
 25 26  1  0
 17 27  2  0
 27 28  1  0
 28 29  1  0
 29 30  2  0
 29 31  1  0
 31 32  1  0
 31 33  2  0
 33 34  1  0
 34 35  2  0
 35 36  1  0
 36 37  1  0
 36 38  1  0
 38 39  1  0
 38 40  1  0
 40 41  1  0
 40 42  1  0
 42 43  1  0
 42 44  1  0
 44 45  1  0
 44 46  1  0
 46 47  1  0
 47 48  1  0
 48 49  1  0
 48 50  2  0
 46 51  1  0
 51 52  1  0
 27 53  1  0
 53 54  1  0
 53 55  2  0
 55 56  1  0
 56 57  1  0
 56 58  2  0
 58 59  1  0
 51  3  1  0
 12  7  1  0
 55 14  1  0
 58 10  1  0
 26 20  1  0
M  END
$$$$
