
     RDKit          2D

 85 95  0  0  0  0  0  0  0  0999 V2000
   -1.3273   -2.9812    0.0000 C   0  0  0  0  0  0  0  0  0  0  0  0
    0.1399   -2.6694    0.0000 C   0  0  0  0  0  0  0  0  0  0  0  0
    1.2546   -3.6731    0.0000 C   0  0  0  0  0  0  0  0  0  0  0  0
    2.5537   -2.9231    0.0000 C   0  0  0  0  0  0  0  0  0  0  0  0
    2.2418   -1.4558    0.0000 O   0  0  0  0  0  0  0  0  0  0  0  0
    0.7500   -1.2990    0.0000 C   0  0  0  0  0  0  0  0  0  0  0  0
    1.5000    0.0000    0.0000 C   0  0  0  0  0  0  0  0  0  0  0  0
    0.7500    1.2990    0.0000 C   0  0  0  0  0  0  0  0  0  0  0  0
   -0.7500    1.2990    0.0000 C   0  0  0  0  0  0  0  0  0  0  0  0
   -1.5000    2.5981    0.0000 C   0  0  0  0  0  0  0  0  0  0  0  0
   -1.5000    0.0000    0.0000 C   0  0  0  0  0  0  0  0  0  0  0  0
   -0.7500   -1.2990    0.0000 O   0  0  0  0  0  0  0  0  0  0  0  0
    3.6684   -3.9267    0.0000 C   0  0  0  0  0  0  0  0  0  0  0  0
    5.1356   -3.6149    0.0000 O   0  0  0  0  0  0  0  0  0  0  0  0
    3.0583   -5.2971    0.0000 C   0  0  0  0  0  0  0  0  0  0  0  0
    3.6684   -6.6674    0.0000 C   0  0  0  0  0  0  0  0  0  0  0  0
    5.1602   -6.8242    0.0000 C   0  0  0  0  0  0  0  0  0  0  0  0
    5.7703   -8.1945    0.0000 C   0  0  0  0  0  0  0  0  0  0  0  0
    4.8886   -9.4080    0.0000 C   0  0  0  0  0  0  0  0  0  0  0  0
    5.4987  -10.7783    0.0000 C   0  0  0  0  0  0  0  0  0  0  0  0
    4.6170  -11.9919    0.0000 C   0  0  0  0  0  0  0  0  0  0  0  0
    5.2271  -13.3622    0.0000 O   0  0  0  0  0  0  0  0  0  0  0  0
    6.7189  -13.5190    0.0000 C   0  0  0  0  0  0  0  0  0  0  0  0
    7.3290  -14.8893    0.0000 O   0  0  0  0  0  0  0  0  0  0  0  0
    8.8208  -15.0461    0.0000 C   0  0  0  0  0  0  0  0  0  0  0  0
    9.4309  -16.4164    0.0000 C   0  0  0  0  0  0  0  0  0  0  0  0
    8.5492  -17.6299    0.0000 O   0  0  0  0  0  0  0  0  0  0  0  0
    9.7025  -13.8326    0.0000 C   0  0  0  0  0  0  0  0  0  0  0  0
   11.1942  -13.9894    0.0000 O   0  0  0  0  0  0  0  0  0  0  0  0
   12.0759  -12.7758    0.0000 C   0  0  0  0  0  0  0  0  0  0  0  0
   11.4658  -11.4055    0.0000 O   0  0  0  0  0  0  0  0  0  0  0  0
   12.3475  -10.1920    0.0000 C   0  0  0  0  0  0  0  0  0  0  0  0
   11.7374   -8.8217    0.0000 C   0  0  0  0  0  0  0  0  0  0  0  0
   10.2456   -8.6649    0.0000 O   0  0  0  0  0  0  0  0  0  0  0  0
   13.8393  -10.3488    0.0000 C   0  0  0  0  0  0  0  0  0  0  0  0
   14.3164   -9.4880    0.0000 O   0  0  0  0  0  0  0  0  0  0  0  0
   14.4494  -11.7191    0.0000 C   0  0  0  0  0  0  0  0  0  0  0  0
   15.9412  -11.8759    0.0000 O   0  0  0  0  0  0  0  0  0  0  0  0
   16.8228  -10.6624    0.0000 C   0  0  0  0  0  0  0  0  0  0  0  0
   18.3146  -10.8192    0.0000 O   0  0  0  0  0  0  0  0  0  0  0  0
   19.1963   -9.6056    0.0000 C   0  0  0  0  0  0  0  0  0  0  0  0
   18.5862   -8.2353    0.0000 C   0  0  0  0  0  0  0  0  0  0  0  0
   19.4679   -7.0218    0.0000 O   0  0  0  0  0  0  0  0  0  0  0  0
   17.0944   -8.0785    0.0000 C   0  0  0  0  0  0  0  0  0  0  0  0
   16.4843   -6.7082    0.0000 O   0  0  0  0  0  0  0  0  0  0  0  0
   16.2127   -9.2920    0.0000 C   0  0  0  0  0  0  0  0  0  0  0  0
   15.2538   -9.0706    0.0000 O   0  0  0  0  0  0  0  0  0  0  0  0
   13.5677  -12.9326    0.0000 C   0  0  0  0  0  0  0  0  0  0  0  0
   14.1778  -14.3029    0.0000 O   0  0  0  0  0  0  0  0  0  0  0  0
   15.6696  -14.4597    0.0000 C   0  0  0  0  0  0  0  0  0  0  0  0
   16.2797  -15.8300    0.0000 O   0  0  0  0  0  0  0  0  0  0  0  0
   17.7715  -15.9868    0.0000 C   0  0  0  0  0  0  0  0  0  0  0  0
   18.3816  -17.3572    0.0000 C   0  0  0  0  0  0  0  0  0  0  0  0
   19.8734  -17.5140    0.0000 O   0  0  0  0  0  0  0  0  0  0  0  0
   18.6532  -14.7733    0.0000 C   0  0  0  0  0  0  0  0  0  0  0  0
   20.1449  -14.9301    0.0000 O   0  0  0  0  0  0  0  0  0  0  0  0
   18.0431  -13.4030    0.0000 C   0  0  0  0  0  0  0  0  0  0  0  0
   18.9247  -12.1895    0.0000 O   0  0  0  0  0  0  0  0  0  0  0  0
   20.4165  -12.3463    0.0000 C   0  0  0  0  0  0  0  0  0  0  0  0
   21.0266  -13.7166    0.0000 O   0  0  0  0  0  0  0  0  0  0  0  0
   22.5184  -13.8734    0.0000 C   0  0  0  0  0  0  0  0  0  0  0  0
   23.1285  -15.2437    0.0000 C   0  0  0  0  0  0  0  0  0  0  0  0
   22.2468  -16.4572    0.0000 O   0  0  0  0  0  0  0  0  0  0  0  0
   23.4001  -12.6599    0.0000 C   0  0  0  0  0  0  0  0  0  0  0  0
   24.8919  -12.8166    0.0000 O   0  0  0  0  0  0  0  0  0  0  0  0
   22.7900  -11.2895    0.0000 C   0  0  0  0  0  0  0  0  0  0  0  0
   23.6716  -10.0760    0.0000 O   0  0  0  0  0  0  0  0  0  0  0  0
   21.2982  -11.1327    0.0000 C   0  0  0  0  0  0  0  0  0  0  0  0
   20.6881   -9.7624    0.0000 O   0  0  0  0  0  0  0  0  0  0  0  0
   16.5513  -13.2462    0.0000 C   0  0  0  0  0  0  0  0  0  0  0  0
   16.4129  -12.4611    0.0000 O   0  0  0  0  0  0  0  0  0  0  0  0
    9.0924  -12.4622    0.0000 C   0  0  0  0  0  0  0  0  0  0  0  0
    9.9740  -11.2487    0.0000 O   0  0  0  0  0  0  0  0  0  0  0  0
    7.6006  -12.3054    0.0000 C   0  0  0  0  0  0  0  0  0  0  0  0
    6.9905  -10.9351    0.0000 O   0  0  0  0  0  0  0  0  0  0  0  0
    3.1252  -11.8351    0.0000 C   0  0  0  0  0  0  0  0  0  0  0  0
    2.2435  -13.0486    0.0000 O   0  0  0  0  0  0  0  0  0  0  0  0
    2.5151  -10.4648    0.0000 C   0  0  0  0  0  0  0  0  0  0  0  0
    3.3968   -9.2512    0.0000 C   0  0  0  0  0  0  0  0  0  0  0  0
    1.9050   -9.0944    0.0000 C   0  0  0  0  0  0  0  0  0  0  0  0
    2.7867   -7.8809    0.0000 C   0  0  0  0  0  0  0  0  0  0  0  0
    1.2949   -7.7241    0.0000 C   0  0  0  0  0  0  0  0  0  0  0  0
    0.6848   -6.3538    0.0000 C   0  0  0  0  0  0  0  0  0  0  0  0
    1.5665   -5.1403    0.0000 C   0  0  0  0  0  0  0  0  0  0  0  0
    0.0993   -4.8284    0.0000 C   0  0  0  0  0  0  0  0  0  0  0  0
  1  2  1  0
  2  3  1  0
  3  4  1  0
  4  5  1  0
  5  6  1  0
  6  7  1  0
  7  8  1  0
  8  9  1  0
  9 10  1  0
  9 11  1  0
 11 12  1  0
  4 13  1  0
 13 14  1  0
 13 15  1  0
 15 16  1  0
 16 17  1  0
 17 18  1  0
 18 19  1  0
 19 20  1  0
 20 21  1  0
 21 22  1  0
 22 23  1  0
 23 24  1  0
 24 25  1  0
 25 26  1  0
 26 27  1  0
 25 28  1  0
 28 29  1  0
 29 30  1  0
 30 31  1  0
 31 32  1  0
 32 33  1  0
 33 34  1  0
 32 35  1  0
 35 36  1  0
 35 37  1  0
 37 38  1  0
 38 39  1  0
 39 40  1  0
 40 41  1  0
 41 42  1  0
 42 43  1  0
 42 44  1  0
 44 45  1  0
 44 46  1  0
 46 47  1  0
 37 48  1  0
 48 49  1  0
 49 50  1  0
 50 51  1  0
 51 52  1  0
 52 53  1  0
 53 54  1  0
 52 55  1  0
 55 56  1  0
 55 57  1  0
 57 58  1  0
 58 59  1  0
 59 60  1  0
 60 61  1  0
 61 62  1  0
 62 63  1  0
 61 64  1  0
 64 65  1  0
 64 66  1  0
 66 67  1  0
 66 68  1  0
 68 69  1  0
 57 70  1  0
 70 71  1  0
 28 72  1  0
 72 73  1  0
 72 74  1  0
 74 75  1  0
 21 76  1  0
 76 77  1  0
 76 78  1  0
 78 79  1  0
 79 80  1  0
 79 81  1  0
 81 82  1  0
 82 83  1  0
 83 84  1  0
 84 85  1  0
  6  2  1  0
 12  6  1  0
 84 15  1  0
 84  3  1  0
 81 16  1  0
 79 19  1  0
 74 23  1  0
 48 30  1  0
 70 50  1  0
 46 39  1  0
 68 59  1  0
M  END
$$$$
