
     RDKit          2D

 40 46  0  0  0  0  0  0  0  0999 V2000
    3.7500   -1.2990    0.0000 C   0  0  0  0  0  0  0  0  0  0  0  0
    3.0000    0.0000    0.0000 C   0  0  0  0  0  0  0  0  0  0  0  0
    1.5000    0.0000    0.0000 N   0  0  0  0  0  0  0  0  0  0  0  0
    0.7500   -1.2990    0.0000 C   0  0  0  0  0  0  0  0  0  0  0  0
   -0.7500   -1.2990    0.0000 C   0  0  0  0  0  0  0  0  0  0  0  0
   -1.5000    0.0000    0.0000 C   0  0  0  0  0  0  0  0  0  0  0  0
   -2.3817   -1.2135    0.0000 C   0  0  0  0  0  0  0  0  0  0  0  0
   -3.8083   -0.7500    0.0000 O   0  0  0  0  0  0  0  0  0  0  0  0
   -3.8083    0.7500    0.0000 C   0  0  0  0  0  0  0  0  0  0  0  0
   -2.3817    1.2135    0.0000 C   0  0  0  0  0  0  0  0  0  0  0  0
   -2.0698    2.6807    0.0000 C   0  0  0  0  0  0  0  0  0  0  0  0
   -3.1845    3.6844    0.0000 C   0  0  0  0  0  0  0  0  0  0  0  0
   -3.1845    5.1844    0.0000 N   0  0  0  0  0  0  0  0  0  0  0  0
   -4.6111    5.6480    0.0000 C   0  0  0  0  0  0  0  0  0  0  0  0
   -5.4928    4.4344    0.0000 C   0  0  0  0  0  0  0  0  0  0  0  0
   -4.6111    3.2209    0.0000 C   0  0  0  0  0  0  0  0  0  0  0  0
   -4.9230    1.7537    0.0000 C   0  0  0  0  0  0  0  0  0  0  0  0
   -1.9710    6.0661    0.0000 C   0  0  0  0  0  0  0  0  0  0  0  0
   -0.6007    5.4560    0.0000 O   0  0  0  0  0  0  0  0  0  0  0  0
   -2.1278    7.5579    0.0000 C   0  0  0  0  0  0  0  0  0  0  0  0
   -0.9143    8.4396    0.0000 C   0  0  0  0  0  0  0  0  0  0  0  0
   -1.0711    9.9314    0.0000 C   0  0  0  0  0  0  0  0  0  0  0  0
   -2.4414   10.5415    0.0000 C   0  0  0  0  0  0  0  0  0  0  0  0
   -3.6549    9.6598    0.0000 C   0  0  0  0  0  0  0  0  0  0  0  0
   -3.4981    8.1680    0.0000 C   0  0  0  0  0  0  0  0  0  0  0  0
   -2.5982   12.0333    0.0000 C   0  0  0  0  0  0  0  0  0  0  0  0
   -1.3846   12.9149    0.0000 C   0  0  0  0  0  0  0  0  0  0  0  0
   -1.5414   14.4067    0.0000 C   0  0  0  0  0  0  0  0  0  0  0  0
   -2.9118   15.0168    0.0000 C   0  0  0  0  0  0  0  0  0  0  0  0
   -4.1253   14.1351    0.0000 C   0  0  0  0  0  0  0  0  0  0  0  0
   -3.9685   12.6434    0.0000 C   0  0  0  0  0  0  0  0  0  0  0  0
   -5.1820   11.7617    0.0000 C   0  0  0  0  0  0  0  0  0  0  0  0
   -3.0686   16.5086    0.0000 C   0  0  0  0  0  0  0  0  0  0  0  0
   -4.3676   17.2586    0.0000 N   0  0  0  0  0  0  0  0  0  0  0  0
   -4.0557   18.7258    0.0000 N   0  0  0  0  0  0  0  0  0  0  0  0
   -2.5639   18.8826    0.0000 C   0  0  0  0  0  0  0  0  0  0  0  0
   -1.8139   20.1817    0.0000 C   0  0  0  0  0  0  0  0  0  0  0  0
   -1.9538   17.5123    0.0000 O   0  0  0  0  0  0  0  0  0  0  0  0
   -0.7500    1.2990    0.0000 C   0  0  0  0  0  0  0  0  0  0  0  0
    0.7500    1.2990    0.0000 C   0  0  0  0  0  0  0  0  0  0  0  0
  1  2  1  0
  2  3  1  0
  3  4  1  0
  4  5  1  0
  5  6  1  0
  6  7  1  0
  7  8  1  0
  8  9  1  0
  9 10  2  0
 10 11  1  0
 11 12  2  0
 12 13  1  0
 13 14  1  0
 14 15  1  0
 15 16  1  0
 16 17  2  0
 13 18  1  0
 18 19  2  0
 18 20  1  0
 20 21  2  0
 21 22  1  0
 22 23  2  0
 23 24  1  0
 24 25  2  0
 23 26  1  0
 26 27  2  0
 27 28  1  0
 28 29  2  0
 29 30  1  0
 30 31  2  0
 31 32  1  0
 29 33  1  0
 33 34  2  0
 34 35  1  0
 35 36  2  0
 36 37  1  0
 36 38  1  0
  6 39  1  0
 39 40  1  0
 40  3  1  0
 10  6  1  0
 16 12  1  0
 25 20  1  0
 31 26  1  0
 38 33  1  0
 17  9  1  0
M  END
$$$$
