
     RDKit          2D

 14 13  0  0  0  0  0  0  0  0999 V2000
    0.0000    0.0000    0.0000 C   0  0  0  0  0  0  0  0  0  0  0  0
    1.2990    0.7500    0.0000 C   0  0  0  0  0  0  0  0  0  0  0  0
    2.5981   -0.0000    0.0000 C   0  0  0  0  0  0  0  0  0  0  0  0
    3.8971   -0.7500    0.0000 C   0  0  0  0  0  0  0  0  0  0  0  0
    1.8481   -1.2990    0.0000 C   0  0  0  0  0  0  0  0  0  0  0  0
    2.5981   -2.5981    0.0000 C   0  0  0  0  0  0  0  0  0  0  0  0
    1.8481   -3.8971    0.0000 C   0  0  0  0  0  0  0  0  0  0  0  0
    2.5981   -5.1962    0.0000 C   0  0  0  0  0  0  0  0  0  0  0  0
    1.8481   -6.4952    0.0000 C   0  0  0  0  0  0  0  0  0  0  0  0
    4.0981   -5.1962    0.0000 C   0  0  0  0  0  0  0  0  0  0  0  0
    3.3481    1.2990    0.0000 O   0  0  0  0  0  0  0  0  0  0  0  0
    4.8481    1.2990    0.0000 C   0  0  0  0  0  0  0  0  0  0  0  0
    5.5981    2.5981    0.0000 C   0  0  0  0  0  0  0  0  0  0  0  0
    5.5981   -0.0000    0.0000 O   0  0  0  0  0  0  0  0  0  0  0  0
  1  2  1  0
  2  3  1  0
  3  4  1  0
  3  5  1  0
  5  6  1  0
  6  7  1  0
  7  8  1  0
  8  9  1  0
  8 10  1  0
  3 11  1  0
 11 12  1  0
 12 13  1  0
 12 14  2  0
M  END
$$$$
