
     RDKit          2D

 27 30  0  0  0  0  0  0  0  0999 V2000
   -6.4952   -2.8573    0.0000 Cl  0  0  0  0  0  0  0  0  0  0  0  0
   -5.1962   -3.6073    0.0000 C   0  0  0  0  0  0  0  0  0  0  0  0
   -3.8971   -2.8573    0.0000 C   0  0  0  0  0  0  0  0  0  0  0  0
   -2.5981   -3.6073    0.0000 C   0  0  0  0  0  0  0  0  0  0  0  0
   -2.5981   -5.1073    0.0000 C   0  0  0  0  0  0  0  0  0  0  0  0
   -3.8971   -5.8573    0.0000 C   0  0  0  0  0  0  0  0  0  0  0  0
   -5.1962   -5.1073    0.0000 C   0  0  0  0  0  0  0  0  0  0  0  0
   -1.2990   -5.8573    0.0000 C   0  0  0  0  0  0  0  0  0  0  0  0
   -0.0000   -5.1073    0.0000 C   0  0  0  0  0  0  0  0  0  0  0  0
   -0.0000   -3.6073    0.0000 O   0  0  0  0  0  0  0  0  0  0  0  0
    1.2990   -5.8573    0.0000 C   0  0  0  0  0  0  0  0  0  0  0  0
    1.4558   -7.3491    0.0000 C   0  0  0  0  0  0  0  0  0  0  0  0
    0.7765   -8.3564    0.0000 O   0  0  0  0  0  0  0  0  0  0  0  0
    2.9231   -7.6610    0.0000 C   0  0  0  0  0  0  0  0  0  0  0  0
    3.6731   -6.3619    0.0000 C   0  0  0  0  0  0  0  0  0  0  0  0
    5.1731   -6.3619    0.0000 C   0  0  0  0  0  0  0  0  0  0  0  0
    5.9231   -7.6610    0.0000 C   0  0  0  0  0  0  0  0  0  0  0  0
    5.1731   -8.9600    0.0000 C   0  0  0  0  0  0  0  0  0  0  0  0
    3.6731   -8.9600    0.0000 C   0  0  0  0  0  0  0  0  0  0  0  0
    2.6694   -5.2472    0.0000 C   0  0  0  0  0  0  0  0  0  0  0  0
    2.9812   -3.7800    0.0000 O   0  0  0  0  0  0  0  0  0  0  0  0
   -1.2990   -7.3573    0.0000 C   0  0  0  0  0  0  0  0  0  0  0  0
   -2.5981   -8.1073    0.0000 C   0  0  0  0  0  0  0  0  0  0  0  0
   -2.5981   -9.6073    0.0000 C   0  0  0  0  0  0  0  0  0  0  0  0
   -1.2990  -10.3573    0.0000 C   0  0  0  0  0  0  0  0  0  0  0  0
   -0.0000   -9.6073    0.0000 C   0  0  0  0  0  0  0  0  0  0  0  0
   -0.0000   -8.1073    0.0000 C   0  0  0  0  0  0  0  0  0  0  0  0
  1  2  1  0
  2  3  2  0
  3  4  1  0
  4  5  2  0
  5  6  1  0
  6  7  2  0
  5  8  1  0
  8  9  1  0
  9 10  2  0
  9 11  1  0
 11 12  1  0
 12 13  2  0
 12 14  1  0
 14 15  2  0
 15 16  1  0
 16 17  2  0
 17 18  1  0
 18 19  2  0
 15 20  1  0
 20 21  2  0
  8 22  1  0
 22 23  2  0
 23 24  1  0
 24 25  2  0
 25 26  1  0
 26 27  2  0
  7  2  1  0
 20 11  1  0
 27 22  1  0
 19 14  1  0
M  END
$$$$
