
     RDKit          2D

 25 24  0  0  0  0  0  0  0  0999 V2000
   -1.2990    0.7500    0.0000 O   0  0  0  0  0  0  0  0  0  0  0  0
    0.0000    0.0000    0.0000 C   0  0  0  0  0  0  0  0  0  0  0  0
    1.2990    0.7500    0.0000 C   0  0  0  0  0  0  0  0  0  0  0  0
    2.0490   -0.5490    0.0000 F   0  0  0  0  0  0  0  0  0  0  0  0
    0.5490    2.0490    0.0000 F   0  0  0  0  0  0  0  0  0  0  0  0
    2.5981    1.5000    0.0000 O   0  0  0  0  0  0  0  0  0  0  0  0
    2.5981    3.0000    0.0000 C   0  0  0  0  0  0  0  0  0  0  0  0
    1.0981    3.0000    0.0000 F   0  0  0  0  0  0  0  0  0  0  0  0
    4.0981    3.0000    0.0000 F   0  0  0  0  0  0  0  0  0  0  0  0
    2.5981    4.5000    0.0000 C   0  0  0  0  0  0  0  0  0  0  0  0
    1.0981    4.5000    0.0000 F   0  0  0  0  0  0  0  0  0  0  0  0
    4.0981    4.5000    0.0000 F   0  0  0  0  0  0  0  0  0  0  0  0
    2.5981    6.0000    0.0000 O   0  0  0  0  0  0  0  0  0  0  0  0
    3.8971    6.7500    0.0000 C   0  0  0  0  0  0  0  0  0  0  0  0
    4.6471    5.4510    0.0000 F   0  0  0  0  0  0  0  0  0  0  0  0
    3.1471    8.0490    0.0000 F   0  0  0  0  0  0  0  0  0  0  0  0
    5.1962    7.5000    0.0000 C   0  0  0  0  0  0  0  0  0  0  0  0
    5.9462    6.2010    0.0000 F   0  0  0  0  0  0  0  0  0  0  0  0
    4.4462    8.7990    0.0000 F   0  0  0  0  0  0  0  0  0  0  0  0
    6.4952    8.2500    0.0000 O   0  0  0  0  0  0  0  0  0  0  0  0
    6.4952    9.7500    0.0000 C   0  0  0  0  0  0  0  0  0  0  0  0
    4.9952    9.7500    0.0000 F   0  0  0  0  0  0  0  0  0  0  0  0
    7.9952    9.7500    0.0000 F   0  0  0  0  0  0  0  0  0  0  0  0
    6.4952   11.2500    0.0000 C   0  0  0  0  0  0  0  0  0  0  0  0
    5.1962   12.0000    0.0000 O   0  0  0  0  0  0  0  0  0  0  0  0
  1  2  1  0
  2  3  1  0
  3  4  1  0
  3  5  1  0
  3  6  1  0
  6  7  1  0
  7  8  1  0
  7  9  1  0
  7 10  1  0
 10 11  1  0
 10 12  1  0
 10 13  1  0
 13 14  1  0
 14 15  1  0
 14 16  1  0
 14 17  1  0
 17 18  1  0
 17 19  1  0
 17 20  1  0
 20 21  1  0
 21 22  1  0
 21 23  1  0
 21 24  1  0
 24 25  1  0
M  END
$$$$
