
     RDKit          2D

 20 20  0  0  0  0  0  0  0  0999 V2000
    8.0260   -6.4952    0.0000 F   0  0  0  0  0  0  0  0  0  0  0  0
    7.2760   -5.1962    0.0000 C   0  0  0  0  0  0  0  0  0  0  0  0
    8.5750   -4.4462    0.0000 F   0  0  0  0  0  0  0  0  0  0  0  0
    5.9769   -5.9462    0.0000 F   0  0  0  0  0  0  0  0  0  0  0  0
    6.5260   -3.8971    0.0000 C   0  0  0  0  0  0  0  0  0  0  0  0
    5.2269   -4.6471    0.0000 F   0  0  0  0  0  0  0  0  0  0  0  0
    7.8250   -3.1471    0.0000 F   0  0  0  0  0  0  0  0  0  0  0  0
    5.7760   -2.5981    0.0000 C   0  0  0  0  0  0  0  0  0  0  0  0
    7.0750   -1.8481    0.0000 F   0  0  0  0  0  0  0  0  0  0  0  0
    4.4769   -3.3481    0.0000 F   0  0  0  0  0  0  0  0  0  0  0  0
    5.0260   -1.2990    0.0000 C   0  0  0  0  0  0  0  0  0  0  0  0
    5.7760    0.0000    0.0000 O   0  0  0  0  0  0  0  0  0  0  0  0
    3.5260   -1.2990    0.0000 C   0  0  0  0  0  0  0  0  0  0  0  0
    2.7760    0.0000    0.0000 C   0  0  0  0  0  0  0  0  0  0  0  0
    3.5260    1.2990    0.0000 O   0  0  0  0  0  0  0  0  0  0  0  0
    1.2760    0.0000    0.0000 C   0  0  0  0  0  0  0  0  0  0  0  0
    0.3943    1.2135    0.0000 C   0  0  0  0  0  0  0  0  0  0  0  0
   -1.0323    0.7500    0.0000 C   0  0  0  0  0  0  0  0  0  0  0  0
   -1.0323   -0.7500    0.0000 C   0  0  0  0  0  0  0  0  0  0  0  0
    0.3943   -1.2135    0.0000 S   0  0  0  0  0  0  0  0  0  0  0  0
  1  2  1  0
  2  3  1  0
  2  4  1  0
  2  5  1  0
  5  6  1  0
  5  7  1  0
  5  8  1  0
  8  9  1  0
  8 10  1  0
  8 11  1  0
 11 12  2  0
 11 13  1  0
 13 14  1  0
 14 15  2  0
 14 16  1  0
 16 17  2  0
 17 18  1  0
 18 19  2  0
 19 20  1  0
 20 16  1  0
M  END
$$$$
