
     RDKit          2D

 39 43  0  0  0  0  0  0  0  0999 V2000
  -11.1190   -3.2601    0.0000 C   0  0  0  0  0  0  0  0  0  0  0  0
   -9.6672   -2.8827    0.0000 O   0  0  0  0  0  0  0  0  0  0  0  0
   -9.2682   -1.4368    0.0000 C   0  0  0  0  0  0  0  0  0  0  0  0
  -10.3209   -0.3682    0.0000 O   0  0  0  0  0  0  0  0  0  0  0  0
   -7.8164   -1.0594    0.0000 C   0  0  0  0  0  0  0  0  0  0  0  0
   -7.4173    0.3865    0.0000 C   0  0  0  0  0  0  0  0  0  0  0  0
   -8.8633    0.7856    0.0000 O   0  0  0  0  0  0  0  0  0  0  0  0
   -7.0183    1.8325    0.0000 C   0  0  0  0  0  0  0  0  0  0  0  0
   -8.0710    2.9010    0.0000 C   0  0  0  0  0  0  0  0  0  0  0  0
   -7.6719    4.3470    0.0000 C   0  0  0  0  0  0  0  0  0  0  0  0
   -8.7246    5.4155    0.0000 C   0  0  0  0  0  0  0  0  0  0  0  0
   -9.7932    4.3628    0.0000 C   0  0  0  0  0  0  0  0  0  0  0  0
   -7.6561    6.4682    0.0000 C   0  0  0  0  0  0  0  0  0  0  0  0
   -9.7773    6.4841    0.0000 O   0  0  0  0  0  0  0  0  0  0  0  0
   -5.9714   -0.0125    0.0000 C   0  0  0  0  0  0  0  0  0  0  0  0
   -5.5940   -1.4643    0.0000 O   0  0  0  0  0  0  0  0  0  0  0  0
   -4.9028    1.0402    0.0000 O   0  0  0  0  0  0  0  0  0  0  0  0
   -1.7472    1.7090    0.0000 C   0  0  0  0  0  0  0  0  0  0  0  0
   -2.2841    1.5763    0.0000 C   0  0  0  0  0  0  0  0  0  0  0  0
   -2.4186    3.0703    0.0000 C   0  0  0  0  0  0  0  0  0  0  0  0
   -1.3344    4.1069    0.0000 C   0  0  0  0  0  0  0  0  0  0  0  0
    0.1520    3.9056    0.0000 C   0  0  0  0  0  0  0  0  0  0  0  0
    0.9214    2.6179    0.0000 C   0  0  0  0  0  0  0  0  0  0  0  0
    0.3943    1.2135    0.0000 N   0  0  0  0  0  0  0  0  0  0  0  0
    1.2760    0.0000    0.0000 C   0  0  0  0  0  0  0  0  0  0  0  0
    0.3943   -1.2135    0.0000 C   0  0  0  0  0  0  0  0  0  0  0  0
   -1.0323   -0.7500    0.0000 C   0  0  0  0  0  0  0  0  0  0  0  0
   -1.0323    0.7500    0.0000 C   0  0  0  0  0  0  0  0  0  0  0  0
   -1.1213    1.2958    0.0000 C   0  0  0  0  0  0  0  0  0  0  0  0
   -1.7729    0.9894    0.0000 C   0  0  0  0  0  0  0  0  0  0  0  0
   -3.7562   -2.0151    0.0000 O   0  0  0  0  0  0  0  0  0  0  0  0
   -3.0852   -3.3567    0.0000 C   0  0  0  0  0  0  0  0  0  0  0  0
   -1.6900    5.5641    0.0000 C   0  0  0  0  0  0  0  0  0  0  0  0
   -3.1298    5.9848    0.0000 C   0  0  0  0  0  0  0  0  0  0  0  0
   -3.7807    7.3362    0.0000 O   0  0  0  0  0  0  0  0  0  0  0  0
   -5.2671    7.1349    0.0000 C   0  0  0  0  0  0  0  0  0  0  0  0
   -5.5349    5.6590    0.0000 O   0  0  0  0  0  0  0  0  0  0  0  0
   -4.2140    4.9482    0.0000 C   0  0  0  0  0  0  0  0  0  0  0  0
   -3.8584    3.4909    0.0000 C   0  0  0  0  0  0  0  0  0  0  0  0
  1  2  1  0
  2  3  1  0
  3  4  2  0
  3  5  1  0
  5  6  1  0
  6  7  1  0
  6  8  1  0
  8  9  1  0
  9 10  1  0
 10 11  1  0
 11 12  1  0
 11 13  1  0
 11 14  1  0
  6 15  1  0
 15 16  2  0
 15 17  1  0
 17 18  1  0
 18 19  1  0
 19 20  1  0
 20 21  2  0
 21 22  1  0
 22 23  1  0
 23 24  1  0
 24 25  1  0
 25 26  1  0
 26 27  1  0
 27 28  1  0
 28 29  1  0
 29 30  2  0
 30 31  1  0
 31 32  1  0
 21 33  1  0
 33 34  2  0
 34 35  1  0
 35 36  1  0
 36 37  1  0
 37 38  1  0
 38 39  2  0
 30 18  1  0
 38 34  1  0
 28 19  1  0
 39 20  1  0
 28 24  1  0
M  END
$$$$
