
     RDKit          2D

 18 20  0  0  0  0  0  0  0  0999 V2000
   -1.0323    3.1771    0.0000 C   0  0  0  0  0  0  0  0  0  0  0  0
    0.3943    2.7135    0.0000 C   0  0  0  0  0  0  0  0  0  0  0  0
    0.3943    1.2135    0.0000 C   0  0  0  0  0  0  0  0  0  0  0  0
    1.7083    1.9568    0.0000 C   0  0  0  0  0  0  0  0  0  0  0  0
    1.5516    3.4486    0.0000 C   0  0  0  0  0  0  0  0  0  0  0  0
    2.7651    4.3303    0.0000 C   0  0  0  0  0  0  0  0  0  0  0  0
    4.1354    3.7202    0.0000 C   0  0  0  0  0  0  0  0  0  0  0  0
    2.6083    5.8221    0.0000 O   0  0  0  0  0  0  0  0  0  0  0  0
    0.1812    4.0587    0.0000 C   0  0  0  0  0  0  0  0  0  0  0  0
    0.0244    5.5505    0.0000 C   0  0  0  0  0  0  0  0  0  0  0  0
    1.2760    0.0000    0.0000 C   0  0  0  0  0  0  0  0  0  0  0  0
    2.7760    0.0000    0.0000 C   0  0  0  0  0  0  0  0  0  0  0  0
    0.3943   -1.2135    0.0000 C   0  0  0  0  0  0  0  0  0  0  0  0
   -1.0323   -0.7500    0.0000 C   0  0  0  0  0  0  0  0  0  0  0  0
   -1.0323    0.7500    0.0000 C   0  0  0  0  0  0  0  0  0  0  0  0
   -1.9140    1.9635    0.0000 C   0  0  0  0  0  0  0  0  0  0  0  0
   -3.0287    0.9598    0.0000 C   0  0  0  0  0  0  0  0  0  0  0  0
   -3.0287    2.9672    0.0000 C   0  0  0  0  0  0  0  0  0  0  0  0
  1  2  1  0
  2  3  1  0
  3  4  1  0
  4  5  1  0
  5  6  1  0
  6  7  1  0
  6  8  2  0
  5  9  2  0
  9 10  1  0
  3 11  1  0
 11 12  1  0
 11 13  1  0
 13 14  1  0
 14 15  1  0
 15 16  1  0
 16 17  1  0
 16 18  1  0
  9  1  1  0
 16  1  1  0
 15  3  1  0
M  END
$$$$
