
     RDKit          2D

 34 37  0  0  0  0  0  0  0  0999 V2000
  -13.6287   -4.4621    0.0000 C   0  0  0  0  0  0  0  0  0  0  0  0
  -12.5140   -5.4658    0.0000 C   0  0  0  0  0  0  0  0  0  0  0  0
  -11.0874   -5.0022    0.0000 C   0  0  0  0  0  0  0  0  0  0  0  0
   -9.9727   -6.0059    0.0000 C   0  0  0  0  0  0  0  0  0  0  0  0
   -8.5461   -5.5424    0.0000 C   0  0  0  0  0  0  0  0  0  0  0  0
   -8.2343   -4.0752    0.0000 O   0  0  0  0  0  0  0  0  0  0  0  0
   -7.4314   -6.5461    0.0000 O   0  0  0  0  0  0  0  0  0  0  0  0
   -6.0048   -6.0826    0.0000 C   0  0  0  0  0  0  0  0  0  0  0  0
   -4.8901   -7.0863    0.0000 C   0  0  0  0  0  0  0  0  0  0  0  0
   -5.2020   -8.5535    0.0000 O   0  0  0  0  0  0  0  0  0  0  0  0
   -3.4635   -6.6227    0.0000 C   0  0  0  0  0  0  0  0  0  0  0  0
   -2.2500   -7.5044    0.0000 C   0  0  0  0  0  0  0  0  0  0  0  0
   -2.2500   -9.0044    0.0000 C   0  0  0  0  0  0  0  0  0  0  0  0
   -1.0365   -6.6227    0.0000 C   0  0  0  0  0  0  0  0  0  0  0  0
   -1.5000   -5.1962    0.0000 C   0  0  0  0  0  0  0  0  0  0  0  0
   -0.7500   -3.8971    0.0000 C   0  0  0  0  0  0  0  0  0  0  0  0
    0.7500   -3.8971    0.0000 C   0  0  0  0  0  0  0  0  0  0  0  0
    1.5000   -2.5981    0.0000 C   0  0  0  0  0  0  0  0  0  0  0  0
    3.0000   -2.5981    0.0000 F   0  0  0  0  0  0  0  0  0  0  0  0
    0.7500   -1.2990    0.0000 C   0  0  0  0  0  0  0  0  0  0  0  0
    1.5000    0.0000    0.0000 C   0  0  0  0  0  0  0  0  0  0  0  0
    0.7500    1.2990    0.0000 C   0  0  0  0  0  0  0  0  0  0  0  0
    1.5000    2.5981    0.0000 O   0  0  0  0  0  0  0  0  0  0  0  0
   -0.7500    1.2990    0.0000 C   0  0  0  0  0  0  0  0  0  0  0  0
   -1.5000    0.0000    0.0000 C   0  0  0  0  0  0  0  0  0  0  0  0
   -0.7500   -1.2990    0.0000 C   0  0  0  0  0  0  0  0  0  0  0  0
   -2.2500   -1.2990    0.0000 C   0  0  0  0  0  0  0  0  0  0  0  0
   -1.5000   -2.5981    0.0000 C   0  0  0  0  0  0  0  0  0  0  0  0
   -2.2500   -3.8971    0.0000 F   0  0  0  0  0  0  0  0  0  0  0  0
   -3.0000   -2.5981    0.0000 C   0  0  0  0  0  0  0  0  0  0  0  0
   -3.7500   -1.2990    0.0000 O   0  0  0  0  0  0  0  0  0  0  0  0
   -3.7500   -3.8971    0.0000 C   0  0  0  0  0  0  0  0  0  0  0  0
   -3.0000   -5.1962    0.0000 C   0  0  0  0  0  0  0  0  0  0  0  0
   -4.4918   -5.3529    0.0000 C   0  0  0  0  0  0  0  0  0  0  0  0
  1  2  1  0
  2  3  1  0
  3  4  1  0
  4  5  1  0
  5  6  2  0
  5  7  1  0
  7  8  1  0
  8  9  1  0
  9 10  2  0
  9 11  1  0
 11 12  1  0
 12 13  1  0
 12 14  1  0
 14 15  1  0
 15 16  1  0
 16 17  1  0
 17 18  1  0
 18 19  1  0
 18 20  1  0
 20 21  2  0
 21 22  1  0
 22 23  2  0
 22 24  1  0
 24 25  2  0
 25 26  1  0
 26 27  1  0
 26 28  1  0
 28 29  1  0
 28 30  1  0
 30 31  1  0
 30 32  1  0
 32 33  1  0
 33 34  1  0
 33 11  1  0
 33 15  1  0
 28 16  1  0
 26 20  1  0
M  END
$$$$
