
     RDKit          2D

 66 72  0  0  0  0  0  0  0  0999 V2000
    0.7500   -1.2990    0.0000 C   0  0  0  0  0  0  0  0  0  0  0  0
    1.5000    0.0000    0.0000 O   0  0  0  0  0  0  0  0  0  0  0  0
    0.7500    1.2990    0.0000 C   0  0  0  0  0  0  0  0  0  0  0  0
    1.5000    2.5981    0.0000 C   0  0  0  0  0  0  0  0  0  0  0  0
    3.0000    2.5981    0.0000 O   0  0  0  0  0  0  0  0  0  0  0  0
   -0.7500    1.2990    0.0000 C   0  0  0  0  0  0  0  0  0  0  0  0
   -2.6807    3.4230    0.0000 O   0  0  0  0  0  0  0  0  0  0  0  0
   -4.0511    4.0331    0.0000 C   0  0  0  0  0  0  0  0  0  0  0  0
   -5.5183    4.3450    0.0000 O   0  0  0  0  0  0  0  0  0  0  0  0
   -7.0183    4.3450    0.0000 C   0  0  0  0  0  0  0  0  0  0  0  0
   -7.1751    5.8367    0.0000 C   0  0  0  0  0  0  0  0  0  0  0  0
   -8.5454    6.4468    0.0000 O   0  0  0  0  0  0  0  0  0  0  0  0
   -8.4855    4.0331    0.0000 C   0  0  0  0  0  0  0  0  0  0  0  0
   -9.8558    3.4230    0.0000 O   0  0  0  0  0  0  0  0  0  0  0  0
  -11.0694    2.5413    0.0000 C   0  0  0  0  0  0  0  0  0  0  0  0
  -12.0730    1.4266    0.0000 O   0  0  0  0  0  0  0  0  0  0  0  0
  -12.8230    0.1275    0.0000 C   0  0  0  0  0  0  0  0  0  0  0  0
  -14.1934    0.7377    0.0000 C   0  0  0  0  0  0  0  0  0  0  0  0
  -15.4069   -0.1440    0.0000 O   0  0  0  0  0  0  0  0  0  0  0  0
  -13.2866   -1.2990    0.0000 C   0  0  0  0  0  0  0  0  0  0  0  0
  -13.4434   -2.7908    0.0000 O   0  0  0  0  0  0  0  0  0  0  0  0
  -13.2866   -4.2826    0.0000 C   0  0  0  0  0  0  0  0  0  0  0  0
  -12.8230   -5.7092    0.0000 O   0  0  0  0  0  0  0  0  0  0  0  0
  -12.0730   -7.0082    0.0000 C   0  0  0  0  0  0  0  0  0  0  0  0
  -13.2866   -7.8899    0.0000 C   0  0  0  0  0  0  0  0  0  0  0  0
  -13.1298   -9.3817    0.0000 O   0  0  0  0  0  0  0  0  0  0  0  0
  -11.0694   -8.1229    0.0000 C   0  0  0  0  0  0  0  0  0  0  0  0
   -9.8558   -9.0046    0.0000 O   0  0  0  0  0  0  0  0  0  0  0  0
   -8.4855   -9.6147    0.0000 C   0  0  0  0  0  0  0  0  0  0  0  0
   -7.0183   -9.9266    0.0000 O   0  0  0  0  0  0  0  0  0  0  0  0
   -5.5183   -9.9266    0.0000 C   0  0  0  0  0  0  0  0  0  0  0  0
   -5.3615  -11.4184    0.0000 C   0  0  0  0  0  0  0  0  0  0  0  0
   -3.9912  -12.0285    0.0000 O   0  0  0  0  0  0  0  0  0  0  0  0
   -4.0511   -9.6147    0.0000 C   0  0  0  0  0  0  0  0  0  0  0  0
   -2.6807   -9.0046    0.0000 O   0  0  0  0  0  0  0  0  0  0  0  0
   -1.4672   -8.1229    0.0000 C   0  0  0  0  0  0  0  0  0  0  0  0
   -0.4635   -7.0082    0.0000 O   0  0  0  0  0  0  0  0  0  0  0  0
    0.2865   -5.7092    0.0000 C   0  0  0  0  0  0  0  0  0  0  0  0
    1.6568   -6.3193    0.0000 C   0  0  0  0  0  0  0  0  0  0  0  0
    2.8703   -5.4376    0.0000 O   0  0  0  0  0  0  0  0  0  0  0  0
    0.7500   -4.2826    0.0000 C   0  0  0  0  0  0  0  0  0  0  0  0
    0.9068   -2.7908    0.0000 O   0  0  0  0  0  0  0  0  0  0  0  0
   -0.1991   -5.9265    0.0000 C   0  0  0  0  0  0  0  0  0  0  0  0
   -1.4672   -4.5156    0.0000 O   0  0  0  0  0  0  0  0  0  0  0  0
   -0.5181   -6.4791    0.0000 C   0  0  0  0  0  0  0  0  0  0  0  0
   -2.3740   -6.0863    0.0000 O   0  0  0  0  0  0  0  0  0  0  0  0
   -5.5183   -9.3029    0.0000 C   0  0  0  0  0  0  0  0  0  0  0  0
   -5.3615   -7.8111    0.0000 O   0  0  0  0  0  0  0  0  0  0  0  0
   -7.0183   -9.3029    0.0000 C   0  0  0  0  0  0  0  0  0  0  0  0
   -7.1751   -7.8111    0.0000 O   0  0  0  0  0  0  0  0  0  0  0  0
  -11.5329   -6.6964    0.0000 C   0  0  0  0  0  0  0  0  0  0  0  0
  -10.1626   -6.0863    0.0000 O   0  0  0  0  0  0  0  0  0  0  0  0
  -12.2829   -5.3973    0.0000 C   0  0  0  0  0  0  0  0  0  0  0  0
  -11.0694   -4.5156    0.0000 O   0  0  0  0  0  0  0  0  0  0  0  0
  -12.2829   -0.1843    0.0000 C   0  0  0  0  0  0  0  0  0  0  0  0
  -11.0694   -1.0660    0.0000 O   0  0  0  0  0  0  0  0  0  0  0  0
  -11.5329    1.1147    0.0000 C   0  0  0  0  0  0  0  0  0  0  0  0
  -10.1626    0.5046    0.0000 O   0  0  0  0  0  0  0  0  0  0  0  0
   -7.0183    3.7212    0.0000 C   0  0  0  0  0  0  0  0  0  0  0  0
   -7.1751    2.2294    0.0000 O   0  0  0  0  0  0  0  0  0  0  0  0
   -5.5183    3.7212    0.0000 C   0  0  0  0  0  0  0  0  0  0  0  0
   -5.3615    2.2294    0.0000 O   0  0  0  0  0  0  0  0  0  0  0  0
   -1.5000    0.0000    0.0000 C   0  0  0  0  0  0  0  0  0  0  0  0
   -3.0000    0.0000    0.0000 O   0  0  0  0  0  0  0  0  0  0  0  0
   -0.7500   -1.2990    0.0000 C   0  0  0  0  0  0  0  0  0  0  0  0
   -1.5000   -2.5981    0.0000 O   0  0  0  0  0  0  0  0  0  0  0  0
  1  2  1  0
  2  3  1  0
  3  4  1  0
  4  5  1  0
  3  6  1  0
  6  7  1  0
  7  8  1  0
  8  9  1  0
  9 10  1  0
 10 11  1  0
 11 12  1  0
 10 13  1  0
 13 14  1  0
 14 15  1  0
 15 16  1  0
 16 17  1  0
 17 18  1  0
 18 19  1  0
 17 20  1  0
 20 21  1  0
 21 22  1  0
 22 23  1  0
 23 24  1  0
 24 25  1  0
 25 26  1  0
 24 27  1  0
 27 28  1  0
 28 29  1  0
 29 30  1  0
 30 31  1  0
 31 32  1  0
 32 33  1  0
 31 34  1  0
 34 35  1  0
 35 36  1  0
 36 37  1  0
 37 38  1  0
 38 39  1  0
 39 40  1  0
 38 41  1  0
 41 42  1  0
 41 43  1  0
 43 44  1  0
 43 45  1  0
 45 46  1  0
 34 47  1  0
 47 48  1  0
 47 49  1  0
 49 50  1  0
 27 51  1  0
 51 52  1  0
 51 53  1  0
 53 54  1  0
 20 55  1  0
 55 56  1  0
 55 57  1  0
 57 58  1  0
 13 59  1  0
 59 60  1  0
 59 61  1  0
 61 62  1  0
  6 63  1  0
 63 64  1  0
 63 65  1  0
 65 66  1  0
 42  1  1  0
 65  1  1  0
 61  8  1  0
 57 15  1  0
 53 22  1  0
 49 29  1  0
 45 36  1  0
M  END
$$$$
