
     RDKit          2D

 33 32  0  0  0  0  0  0  0  0999 V2000
    0.0000    0.0000    0.0000 C   0  0  0  0  0  0  0  0  0  0  0  0
    1.2990    0.7500    0.0000 C   0  0  0  0  0  0  0  0  0  0  0  0
    2.5981   -0.0000    0.0000 C   0  0  0  0  0  0  0  0  0  0  0  0
    3.8971    0.7500    0.0000 C   0  0  0  0  0  0  0  0  0  0  0  0
    5.1962   -0.0000    0.0000 C   0  0  0  0  0  0  0  0  0  0  0  0
    6.4952    0.7500    0.0000 C   0  0  0  0  0  0  0  0  0  0  0  0
    7.7942   -0.0000    0.0000 C   0  0  0  0  0  0  0  0  0  0  0  0
    9.0933    0.7500    0.0000 C   0  0  0  0  0  0  0  0  0  0  0  0
   10.3923   -0.0000    0.0000 C   0  0  0  0  0  0  0  0  0  0  0  0
   11.6913    0.7500    0.0000 C   0  0  0  0  0  0  0  0  0  0  0  0
   12.9904   -0.0000    0.0000 C   0  0  0  0  0  0  0  0  0  0  0  0
   14.2894    0.7500    0.0000 C   0  0  0  0  0  0  0  0  0  0  0  0
   15.5885   -0.0000    0.0000 C   0  0  0  0  0  0  0  0  0  0  0  0
   16.8875    0.7500    0.0000 C   0  0  0  0  0  0  0  0  0  0  0  0
   18.1865   -0.0000    0.0000 P   0  0  0  0  0  0  0  0  0  0  0  0
   18.9365    1.2990    0.0000 C   0  0  0  0  0  0  0  0  0  0  0  0
   20.4365    1.2990    0.0000 C   0  0  0  0  0  0  0  0  0  0  0  0
   21.1865    2.5981    0.0000 C   0  0  0  0  0  0  0  0  0  0  0  0
   22.6865    2.5981    0.0000 C   0  0  0  0  0  0  0  0  0  0  0  0
   23.4365    3.8971    0.0000 C   0  0  0  0  0  0  0  0  0  0  0  0
   24.9365    3.8971    0.0000 C   0  0  0  0  0  0  0  0  0  0  0  0
   17.4365   -1.2990    0.0000 C   0  0  0  0  0  0  0  0  0  0  0  0
   18.1865   -2.5981    0.0000 C   0  0  0  0  0  0  0  0  0  0  0  0
   17.4365   -3.8971    0.0000 C   0  0  0  0  0  0  0  0  0  0  0  0
   18.1865   -5.1962    0.0000 C   0  0  0  0  0  0  0  0  0  0  0  0
   17.4365   -6.4952    0.0000 C   0  0  0  0  0  0  0  0  0  0  0  0
   18.1865   -7.7942    0.0000 C   0  0  0  0  0  0  0  0  0  0  0  0
   19.4856   -0.7500    0.0000 C   0  0  0  0  0  0  0  0  0  0  0  0
   19.4856   -2.2500    0.0000 C   0  0  0  0  0  0  0  0  0  0  0  0
   20.7846   -3.0000    0.0000 C   0  0  0  0  0  0  0  0  0  0  0  0
   20.7846   -4.5000    0.0000 C   0  0  0  0  0  0  0  0  0  0  0  0
   22.0836   -5.2500    0.0000 C   0  0  0  0  0  0  0  0  0  0  0  0
   22.0836   -6.7500    0.0000 C   0  0  0  0  0  0  0  0  0  0  0  0
  1  2  1  0
  2  3  1  0
  3  4  1  0
  4  5  1  0
  5  6  1  0
  6  7  1  0
  7  8  1  0
  8  9  1  0
  9 10  1  0
 10 11  1  0
 11 12  1  0
 12 13  1  0
 13 14  1  0
 14 15  1  0
 15 16  1  0
 16 17  1  0
 17 18  1  0
 18 19  1  0
 19 20  1  0
 20 21  1  0
 15 22  1  0
 22 23  1  0
 23 24  1  0
 24 25  1  0
 25 26  1  0
 26 27  1  0
 15 28  1  0
 28 29  1  0
 29 30  1  0
 30 31  1  0
 31 32  1  0
 32 33  1  0
M  END
$$$$
