
     RDKit          2D

 72 81  0  0  0  0  0  0  0  0999 V2000
   -1.3273   -2.9812    0.0000 C   0  0  0  0  0  0  0  0  0  0  0  0
    0.1399   -2.6694    0.0000 C   0  0  0  0  0  0  0  0  0  0  0  0
    1.2546   -3.6731    0.0000 C   0  0  0  0  0  0  0  0  0  0  0  0
    2.5537   -2.9231    0.0000 C   0  0  0  0  0  0  0  0  0  0  0  0
    3.6684   -3.9267    0.0000 C   0  0  0  0  0  0  0  0  0  0  0  0
    3.0583   -5.2971    0.0000 C   0  0  0  0  0  0  0  0  0  0  0  0
    3.6684   -6.6674    0.0000 C   0  0  0  0  0  0  0  0  0  0  0  0
    5.1602   -6.8242    0.0000 C   0  0  0  0  0  0  0  0  0  0  0  0
    5.7703   -8.1945    0.0000 C   0  0  0  0  0  0  0  0  0  0  0  0
    4.8886   -9.4080    0.0000 C   0  0  0  0  0  0  0  0  0  0  0  0
    5.4987  -10.7783    0.0000 C   0  0  0  0  0  0  0  0  0  0  0  0
    4.6170  -11.9919    0.0000 C   0  0  0  0  0  0  0  0  0  0  0  0
    3.1252  -11.8351    0.0000 C   0  0  0  0  0  0  0  0  0  0  0  0
    2.5151  -10.4648    0.0000 C   0  0  0  0  0  0  0  0  0  0  0  0
    3.3968   -9.2512    0.0000 C   0  0  0  0  0  0  0  0  0  0  0  0
    1.9050   -9.0944    0.0000 C   0  0  0  0  0  0  0  0  0  0  0  0
    2.7867   -7.8809    0.0000 C   0  0  0  0  0  0  0  0  0  0  0  0
    1.2949   -7.7241    0.0000 C   0  0  0  0  0  0  0  0  0  0  0  0
    0.6848   -6.3538    0.0000 C   0  0  0  0  0  0  0  0  0  0  0  0
    1.5665   -5.1403    0.0000 C   0  0  0  0  0  0  0  0  0  0  0  0
    0.0993   -4.8284    0.0000 C   0  0  0  0  0  0  0  0  0  0  0  0
    5.2271  -13.3622    0.0000 O   0  0  0  0  0  0  0  0  0  0  0  0
    4.3454  -14.5757    0.0000 C   0  0  0  0  0  0  0  0  0  0  0  0
    2.8536  -14.4189    0.0000 O   0  0  0  0  0  0  0  0  0  0  0  0
    1.9720  -15.6324    0.0000 C   0  0  0  0  0  0  0  0  0  0  0  0
    0.4802  -15.4756    0.0000 C   0  0  0  0  0  0  0  0  0  0  0  0
   -0.1299  -14.1053    0.0000 O   0  0  0  0  0  0  0  0  0  0  0  0
    2.5821  -17.0028    0.0000 C   0  0  0  0  0  0  0  0  0  0  0  0
    1.7004  -18.2163    0.0000 O   0  0  0  0  0  0  0  0  0  0  0  0
    2.3105  -19.5866    0.0000 C   0  0  0  0  0  0  0  0  0  0  0  0
    1.4288  -20.8001    0.0000 O   0  0  0  0  0  0  0  0  0  0  0  0
    2.0389  -22.1704    0.0000 C   0  0  0  0  0  0  0  0  0  0  0  0
    1.1573  -23.3840    0.0000 C   0  0  0  0  0  0  0  0  0  0  0  0
   -0.3345  -23.2272    0.0000 O   0  0  0  0  0  0  0  0  0  0  0  0
    3.5307  -22.3272    0.0000 C   0  0  0  0  0  0  0  0  0  0  0  0
    3.8184  -23.2684    0.0000 O   0  0  0  0  0  0  0  0  0  0  0  0
    4.4124  -21.1137    0.0000 C   0  0  0  0  0  0  0  0  0  0  0  0
    5.9042  -21.2705    0.0000 O   0  0  0  0  0  0  0  0  0  0  0  0
    6.5143  -22.6408    0.0000 C   0  0  0  0  0  0  0  0  0  0  0  0
    8.0061  -22.7976    0.0000 O   0  0  0  0  0  0  0  0  0  0  0  0
    8.6162  -24.1679    0.0000 C   0  0  0  0  0  0  0  0  0  0  0  0
    7.7345  -25.3815    0.0000 C   0  0  0  0  0  0  0  0  0  0  0  0
    8.3446  -26.7518    0.0000 O   0  0  0  0  0  0  0  0  0  0  0  0
    6.2427  -25.2247    0.0000 C   0  0  0  0  0  0  0  0  0  0  0  0
    5.3610  -26.4382    0.0000 O   0  0  0  0  0  0  0  0  0  0  0  0
    5.6326  -23.8544    0.0000 C   0  0  0  0  0  0  0  0  0  0  0  0
    4.6486  -23.8716    0.0000 O   0  0  0  0  0  0  0  0  0  0  0  0
    3.8023  -19.7434    0.0000 C   0  0  0  0  0  0  0  0  0  0  0  0
    4.6840  -18.5299    0.0000 O   0  0  0  0  0  0  0  0  0  0  0  0
    6.1757  -18.6867    0.0000 C   0  0  0  0  0  0  0  0  0  0  0  0
    7.0574  -17.4731    0.0000 O   0  0  0  0  0  0  0  0  0  0  0  0
    8.5492  -17.6299    0.0000 C   0  0  0  0  0  0  0  0  0  0  0  0
    9.4309  -16.4164    0.0000 C   0  0  0  0  0  0  0  0  0  0  0  0
   10.9227  -16.5732    0.0000 O   0  0  0  0  0  0  0  0  0  0  0  0
    9.1593  -19.0002    0.0000 C   0  0  0  0  0  0  0  0  0  0  0  0
   10.6511  -19.1570    0.0000 O   0  0  0  0  0  0  0  0  0  0  0  0
    8.2776  -20.2138    0.0000 C   0  0  0  0  0  0  0  0  0  0  0  0
    8.8877  -21.5841    0.0000 O   0  0  0  0  0  0  0  0  0  0  0  0
    6.7859  -20.0570    0.0000 C   0  0  0  0  0  0  0  0  0  0  0  0
    6.4873  -20.7961    0.0000 O   0  0  0  0  0  0  0  0  0  0  0  0
    4.0739  -17.1596    0.0000 C   0  0  0  0  0  0  0  0  0  0  0  0
    4.9974  -18.3415    0.0000 O   0  0  0  0  0  0  0  0  0  0  0  0
    4.9555  -15.9460    0.0000 C   0  0  0  0  0  0  0  0  0  0  0  0
    6.4473  -16.1028    0.0000 O   0  0  0  0  0  0  0  0  0  0  0  0
    2.2418   -1.4558    0.0000 O   0  0  0  0  0  0  0  0  0  0  0  0
    0.7500   -1.2990    0.0000 C   0  0  0  0  0  0  0  0  0  0  0  0
    1.5000    0.0000    0.0000 C   0  0  0  0  0  0  0  0  0  0  0  0
    0.7500    1.2990    0.0000 C   0  0  0  0  0  0  0  0  0  0  0  0
   -0.7500    1.2990    0.0000 C   0  0  0  0  0  0  0  0  0  0  0  0
   -1.5000    2.5981    0.0000 C   0  0  0  0  0  0  0  0  0  0  0  0
   -1.5000    0.0000    0.0000 C   0  0  0  0  0  0  0  0  0  0  0  0
   -0.7500   -1.2990    0.0000 N   0  0  0  0  0  0  0  0  0  0  0  0
  1  2  1  0
  2  3  1  0
  3  4  1  0
  4  5  1  0
  5  6  1  0
  6  7  1  0
  7  8  1  0
  8  9  1  0
  9 10  1  0
 10 11  1  0
 11 12  1  0
 12 13  1  0
 13 14  1  0
 14 15  1  0
 15 16  1  0
 15 17  1  0
 17 18  1  0
 18 19  1  0
 19 20  1  0
 20 21  1  0
 12 22  1  0
 22 23  1  0
 23 24  1  0
 24 25  1  0
 25 26  1  0
 26 27  1  0
 25 28  1  0
 28 29  1  0
 29 30  1  0
 30 31  1  0
 31 32  1  0
 32 33  1  0
 33 34  1  0
 32 35  1  0
 35 36  1  0
 35 37  1  0
 37 38  1  0
 38 39  1  0
 39 40  1  0
 40 41  1  0
 41 42  1  0
 42 43  1  0
 42 44  1  0
 44 45  1  0
 44 46  1  0
 46 47  1  0
 37 48  1  0
 48 49  1  0
 49 50  1  0
 50 51  1  0
 51 52  1  0
 52 53  1  0
 53 54  1  0
 52 55  1  0
 55 56  1  0
 55 57  1  0
 57 58  1  0
 57 59  1  0
 59 60  1  0
 28 61  1  0
 61 62  1  0
 61 63  1  0
 63 64  1  0
  4 65  1  0
 65 66  1  0
 66 67  1  0
 67 68  1  0
 68 69  1  0
 69 70  1  0
 69 71  1  0
 71 72  1  0
 66  2  1  0
 72 66  1  0
 20  3  1  0
 63 23  1  0
 20  6  1  0
 48 30  1  0
 59 50  1  0
 17  7  1  0
 46 39  1  0
 15 10  1  0
M  END
$$$$
