
     RDKit          2D

 34 39  0  0  0  0  0  0  0  0999 V2000
    3.7181   -7.1199    0.0000 Cl  0  0  0  0  0  0  0  0  0  0  0  0
    2.4787   -6.2750    0.0000 C   0  0  0  0  0  0  0  0  0  0  0  0
    2.5908   -4.7792    0.0000 C   0  0  0  0  0  0  0  0  0  0  0  0
    1.3515   -3.9342    0.0000 C   0  0  0  0  0  0  0  0  0  0  0  0
   -0.0000   -4.5850    0.0000 C   0  0  0  0  0  0  0  0  0  0  0  0
   -1.3515   -3.9342    0.0000 C   0  0  0  0  0  0  0  0  0  0  0  0
   -1.6852   -2.4718    0.0000 C   0  0  0  0  0  0  0  0  0  0  0  0
   -0.7500   -1.2990    0.0000 C   0  0  0  0  0  0  0  0  0  0  0  0
    0.7500   -1.2990    0.0000 C   0  0  0  0  0  0  0  0  0  0  0  0
    1.5000    0.0000    0.0000 C   0  0  0  0  0  0  0  0  0  0  0  0
    0.7500    1.2990    0.0000 C   0  0  0  0  0  0  0  0  0  0  0  0
   -0.7500    1.2990    0.0000 C   0  0  0  0  0  0  0  0  0  0  0  0
   -1.5000    0.0000    0.0000 C   0  0  0  0  0  0  0  0  0  0  0  0
    1.6852   -2.4718    0.0000 N   0  0  0  0  0  0  0  0  0  0  0  0
    3.1476   -2.1380    0.0000 C   0  0  0  0  0  0  0  0  0  0  0  0
    4.1679   -3.2376    0.0000 C   0  0  0  0  0  0  0  0  0  0  0  0
    5.6303   -2.9038    0.0000 C   0  0  0  0  0  0  0  0  0  0  0  0
    6.6505   -4.0034    0.0000 N   0  0  0  0  0  0  0  0  0  0  0  0
    6.2084   -5.4367    0.0000 C   0  0  0  0  0  0  0  0  0  0  0  0
    7.2287   -6.5363    0.0000 C   0  0  0  0  0  0  0  0  0  0  0  0
    8.6911   -6.2025    0.0000 C   0  0  0  0  0  0  0  0  0  0  0  0
    9.1332   -4.7692    0.0000 C   0  0  0  0  0  0  0  0  0  0  0  0
    8.1129   -3.6696    0.0000 C   0  0  0  0  0  0  0  0  0  0  0  0
   10.1803   -6.0234    0.0000 N   0  0  0  0  0  0  0  0  0  0  0  0
   11.0438   -4.7969    0.0000 C   0  0  0  0  0  0  0  0  0  0  0  0
   12.5377   -4.9313    0.0000 C   0  0  0  0  0  0  0  0  0  0  0  0
   13.1682   -6.2924    0.0000 C   0  0  0  0  0  0  0  0  0  0  0  0
   12.3048   -7.5189    0.0000 C   0  0  0  0  0  0  0  0  0  0  0  0
   10.8109   -7.3845    0.0000 C   0  0  0  0  0  0  0  0  0  0  0  0
    9.7113   -8.4047    0.0000 N   0  0  0  0  0  0  0  0  0  0  0  0
    8.4012   -7.6743    0.0000 C   0  0  0  0  0  0  0  0  0  0  0  0
    7.0401   -8.3048    0.0000 O   0  0  0  0  0  0  0  0  0  0  0  0
   -0.1121   -6.0808    0.0000 C   0  0  0  0  0  0  0  0  0  0  0  0
    1.1273   -6.9258    0.0000 C   0  0  0  0  0  0  0  0  0  0  0  0
  1  2  1  0
  2  3  2  0
  3  4  1  0
  4  5  2  0
  5  6  1  0
  6  7  1  0
  7  8  1  0
  8  9  2  0
  9 10  1  0
 10 11  2  0
 11 12  1  0
 12 13  2  0
  9 14  1  0
 14 15  1  0
 15 16  1  0
 16 17  1  0
 17 18  1  0
 18 19  1  0
 19 20  1  0
 20 21  1  0
 21 22  1  0
 22 23  1  0
 21 24  1  0
 24 25  1  0
 25 26  1  0
 26 27  1  0
 27 28  1  0
 28 29  1  0
 29 30  1  0
 30 31  1  0
 31 32  2  0
  5 33  1  0
 33 34  2  0
 34  2  1  0
 14  4  1  0
 23 18  1  0
 29 24  1  0
 13  8  1  0
 31 21  1  0
M  END
$$$$
