
     RDKit          2D

 39 41  0  0  0  0  0  0  0  0999 V2000
  -15.6449    2.5629    0.0000 C   0  0  0  0  0  0  0  0  0  0  0  0
  -14.7953    3.7991    0.0000 C   0  0  0  0  0  0  0  0  0  0  0  0
  -15.4411    5.1530    0.0000 C   0  0  0  0  0  0  0  0  0  0  0  0
  -13.3000    3.6814    0.0000 C   0  0  0  0  0  0  0  0  0  0  0  0
  -12.6542    2.3275    0.0000 N   0  0  0  0  0  0  0  0  0  0  0  0
  -12.4503    4.9176    0.0000 C   0  0  0  0  0  0  0  0  0  0  0  0
  -13.0961    6.2715    0.0000 O   0  0  0  0  0  0  0  0  0  0  0  0
  -10.9550    4.7999    0.0000 N   0  0  0  0  0  0  0  0  0  0  0  0
  -10.1054    6.0361    0.0000 C   0  0  0  0  0  0  0  0  0  0  0  0
   -8.6100    5.9184    0.0000 C   0  0  0  0  0  0  0  0  0  0  0  0
   -8.4923    7.4138    0.0000 C   0  0  0  0  0  0  0  0  0  0  0  0
   -8.7277    4.4230    0.0000 C   0  0  0  0  0  0  0  0  0  0  0  0
   -7.1146    5.8007    0.0000 S   0  0  0  0  0  0  0  0  0  0  0  0
   -6.4688    4.4468    0.0000 C   0  0  0  0  0  0  0  0  0  0  0  0
   -4.9735    4.3291    0.0000 C   0  0  0  0  0  0  0  0  0  0  0  0
   -4.1239    5.5653    0.0000 O   0  0  0  0  0  0  0  0  0  0  0  0
   -4.3277    2.9753    0.0000 O   0  0  0  0  0  0  0  0  0  0  0  0
   -2.1345    2.8026    0.0000 C   0  0  0  0  0  0  0  0  0  0  0  0
   -1.6967    3.6618    0.0000 C   0  0  0  0  0  0  0  0  0  0  0  0
   -0.7797    3.9598    0.0000 C   0  0  0  0  0  0  0  0  0  0  0  0
   -1.5417    5.9156    0.0000 C   0  0  0  0  0  0  0  0  0  0  0  0
    0.2789    5.7723    0.0000 C   0  0  0  0  0  0  0  0  0  0  0  0
   -0.1846    7.1989    0.0000 C   0  0  0  0  0  0  0  0  0  0  0  0
    0.0795    3.5220    0.0000 C   0  0  0  0  0  0  0  0  0  0  0  0
    1.7524    4.9508    0.0000 O   0  0  0  0  0  0  0  0  0  0  0  0
    0.3774    2.6050    0.0000 C   0  0  0  0  0  0  0  0  0  0  0  0
    2.5707    2.4323    0.0000 C   0  0  0  0  0  0  0  0  0  0  0  0
    0.3943    1.2135    0.0000 C   0  0  0  0  0  0  0  0  0  0  0  0
    1.2760    0.0000    0.0000 C   0  0  0  0  0  0  0  0  0  0  0  0
    0.3943   -1.2135    0.0000 C   0  0  0  0  0  0  0  0  0  0  0  0
   -1.0323   -0.7500    0.0000 C   0  0  0  0  0  0  0  0  0  0  0  0
   -2.2458   -1.6317    0.0000 O   0  0  0  0  0  0  0  0  0  0  0  0
   -1.0323    0.7500    0.0000 C   0  0  0  0  0  0  0  0  0  0  0  0
   -2.3688    1.4310    0.0000 C   0  0  0  0  0  0  0  0  0  0  0  0
   -3.5094    0.4568    0.0000 C   0  0  0  0  0  0  0  0  0  0  0  0
   -1.6235    1.7866    0.0000 C   0  0  0  0  0  0  0  0  0  0  0  0
   -3.3143    3.7624    0.0000 C   0  0  0  0  0  0  0  0  0  0  0  0
   -0.8538    2.1647    0.0000 C   0  0  0  0  0  0  0  0  0  0  0  0
   -0.2544    1.7206    0.0000 C   0  0  0  0  0  0  0  0  0  0  0  0
  1  2  1  0
  2  3  1  0
  2  4  1  0
  4  5  1  0
  4  6  1  0
  6  7  2  0
  6  8  1  0
  8  9  1  0
  9 10  1  0
 10 11  1  0
 10 12  1  0
 10 13  1  0
 13 14  1  0
 14 15  1  0
 15 16  2  0
 15 17  1  0
 17 18  1  0
 18 19  1  0
 19 20  1  0
 20 21  1  0
 20 22  1  0
 22 23  2  0
 20 24  1  0
 24 25  1  0
 24 26  1  0
 26 27  1  0
 26 28  1  0
 28 29  1  0
 29 30  1  0
 30 31  1  0
 31 32  2  0
 31 33  1  0
 33 34  1  0
 34 35  1  0
 34 36  1  0
 36 37  1  0
 36 38  1  0
 38 39  1  0
 34 18  1  0
 33 28  1  0
 39 28  1  0
M  END
$$$$
