
     RDKit          2D

 45 52  0  0  0  0  0  0  0  0999 V2000
   -7.2307    3.3305    0.0000 C   0  0  0  0  0  0  0  0  0  0  0  0
   -7.2135    4.3145    0.0000 C   0  0  0  0  0  0  0  0  0  0  0  0
   -8.5838    4.9246    0.0000 C   0  0  0  0  0  0  0  0  0  0  0  0
   -6.0000    5.1962    0.0000 C   0  0  0  0  0  0  0  0  0  0  0  0
   -5.2500    3.8971    0.0000 N   0  0  0  0  0  0  0  0  0  0  0  0
   -6.0000    2.5981    0.0000 C   0  0  0  0  0  0  0  0  0  0  0  0
   -6.9768    2.4781    0.0000 O   0  0  0  0  0  0  0  0  0  0  0  0
   -5.2500    1.2990    0.0000 C   0  0  0  0  0  0  0  0  0  0  0  0
   -3.7500    1.2990    0.0000 C   0  0  0  0  0  0  0  0  0  0  0  0
   -3.0000   -0.0000    0.0000 C   0  0  0  0  0  0  0  0  0  0  0  0
   -3.7500   -1.2990    0.0000 C   0  0  0  0  0  0  0  0  0  0  0  0
   -3.0000   -2.5981    0.0000 C   0  0  0  0  0  0  0  0  0  0  0  0
   -1.5000   -2.5981    0.0000 C   0  0  0  0  0  0  0  0  0  0  0  0
   -0.3853   -3.6018    0.0000 C   0  0  0  0  0  0  0  0  0  0  0  0
    0.9138   -2.8518    0.0000 N   0  0  0  0  0  0  0  0  0  0  0  0
    0.7500   -1.2990    0.0000 C   0  0  0  0  0  0  0  0  0  0  0  0
    1.5000   -0.0000    0.0000 C   0  0  0  0  0  0  0  0  0  0  0  0
    0.7500    1.2990    0.0000 C   0  0  0  0  0  0  0  0  0  0  0  0
   -0.7500    1.2990    0.0000 C   0  0  0  0  0  0  0  0  0  0  0  0
   -1.5000   -0.0000    0.0000 C   0  0  0  0  0  0  0  0  0  0  0  0
   -0.7500   -1.2990    0.0000 C   0  0  0  0  0  0  0  0  0  0  0  0
   -5.2500   -1.2990    0.0000 N   0  0  0  0  0  0  0  0  0  0  0  0
   -6.0000   -2.5981    0.0000 C   0  0  0  0  0  0  0  0  0  0  0  0
   -6.0000    0.0000    0.0000 C   0  0  0  0  0  0  0  0  0  0  0  0
   -7.0037    6.3109    0.0000 O   0  0  0  0  0  0  0  0  0  0  0  0
   -6.2537    7.6099    0.0000 C   0  0  0  0  0  0  0  0  0  0  0  0
   -7.7455    7.7667    0.0000 O   0  0  0  0  0  0  0  0  0  0  0  0
   -6.7172    9.0365    0.0000 C   0  0  0  0  0  0  0  0  0  0  0  0
   -8.0875    9.6466    0.0000 C   0  0  0  0  0  0  0  0  0  0  0  0
   -7.9307   11.1384    0.0000 C   0  0  0  0  0  0  0  0  0  0  0  0
   -6.4635   11.4502    0.0000 C   0  0  0  0  0  0  0  0  0  0  0  0
   -5.7135   10.1512    0.0000 N   0  0  0  0  0  0  0  0  0  0  0  0
   -4.2463    9.8393    0.0000 C   0  0  0  0  0  0  0  0  0  0  0  0
   -3.2426   10.9541    0.0000 O   0  0  0  0  0  0  0  0  0  0  0  0
   -3.7828    8.4128    0.0000 C   0  0  0  0  0  0  0  0  0  0  0  0
   -2.3156    8.1009    0.0000 C   0  0  0  0  0  0  0  0  0  0  0  0
   -1.8520    6.6743    0.0000 C   0  0  0  0  0  0  0  0  0  0  0  0
   -2.8557    5.5596    0.0000 C   0  0  0  0  0  0  0  0  0  0  0  0
   -2.3922    4.1330    0.0000 C   0  0  0  0  0  0  0  0  0  0  0  0
   -0.9250    3.8211    0.0000 C   0  0  0  0  0  0  0  0  0  0  0  0
    0.0787    4.9359    0.0000 C   0  0  0  0  0  0  0  0  0  0  0  0
   -0.3848    6.3624    0.0000 C   0  0  0  0  0  0  0  0  0  0  0  0
   -4.7865    7.2980    0.0000 N   0  0  0  0  0  0  0  0  0  0  0  0
   -4.6297    5.8063    0.0000 C   0  0  0  0  0  0  0  0  0  0  0  0
   -3.5507    4.7642    0.0000 O   0  0  0  0  0  0  0  0  0  0  0  0
  1  2  1  0
  2  3  1  0
  2  4  1  0
  4  5  1  0
  5  6  1  0
  6  7  2  0
  6  8  1  0
  8  9  1  0
  9 10  1  0
 10 11  1  0
 11 12  1  0
 12 13  1  0
 13 14  2  0
 14 15  1  0
 15 16  1  0
 16 17  2  0
 17 18  1  0
 18 19  2  0
 19 20  1  0
 20 21  2  0
 11 22  1  0
 22 23  1  0
 22 24  1  0
  4 25  1  0
 25 26  1  0
 26 27  1  0
 26 28  1  0
 28 29  1  0
 29 30  1  0
 30 31  1  0
 31 32  1  0
 32 33  1  0
 33 34  2  0
 33 35  1  0
 35 36  1  0
 36 37  1  0
 37 38  2  0
 38 39  1  0
 39 40  2  0
 40 41  1  0
 41 42  2  0
 35 43  1  0
 43 44  1  0
 44 45  2  0
 44  4  1  0
 24  8  1  0
 43 26  1  0
 20 10  1  0
 32 28  1  0
 42 37  1  0
 21 13  1  0
 21 16  1  0
M  END
$$$$
