
     RDKit          2D

 25 28  0  0  0  0  0  0  0  0999 V2000
    6.6948   -0.2852    0.0000 O   0  0  0  0  0  0  0  0  0  0  0  0
    5.3245   -0.8953    0.0000 C   0  0  0  0  0  0  0  0  0  0  0  0
    5.1677   -2.3871    0.0000 C   0  0  0  0  0  0  0  0  0  0  0  0
    3.7974   -2.9972    0.0000 C   0  0  0  0  0  0  0  0  0  0  0  0
    2.5838   -2.1155    0.0000 C   0  0  0  0  0  0  0  0  0  0  0  0
    2.7406   -0.6237    0.0000 C   0  0  0  0  0  0  0  0  0  0  0  0
    4.1110   -0.0136    0.0000 C   0  0  0  0  0  0  0  0  0  0  0  0
    1.2135   -2.7256    0.0000 C   0  0  0  0  0  0  0  0  0  0  0  0
   -0.0000   -3.6073    0.0000 O   0  0  0  0  0  0  0  0  0  0  0  0
   -1.2135   -2.7256    0.0000 S   0  0  0  0  0  0  0  0  0  0  0  0
   -1.9635   -4.0247    0.0000 O   0  0  0  0  0  0  0  0  0  0  0  0
   -2.5838   -2.1155    0.0000 O   0  0  0  0  0  0  0  0  0  0  0  0
   -0.7500   -1.2990    0.0000 C   0  0  0  0  0  0  0  0  0  0  0  0
    0.7500   -1.2990    0.0000 C   0  0  0  0  0  0  0  0  0  0  0  0
    1.5000    0.0000    0.0000 C   0  0  0  0  0  0  0  0  0  0  0  0
    0.7500    1.2990    0.0000 C   0  0  0  0  0  0  0  0  0  0  0  0
   -0.7500    1.2990    0.0000 C   0  0  0  0  0  0  0  0  0  0  0  0
   -1.5000    0.0000    0.0000 C   0  0  0  0  0  0  0  0  0  0  0  0
    1.9635   -4.0247    0.0000 C   0  0  0  0  0  0  0  0  0  0  0  0
    1.2135   -5.3237    0.0000 C   0  0  0  0  0  0  0  0  0  0  0  0
    1.9635   -6.6227    0.0000 C   0  0  0  0  0  0  0  0  0  0  0  0
    3.4635   -6.6227    0.0000 C   0  0  0  0  0  0  0  0  0  0  0  0
    4.2135   -7.9218    0.0000 O   0  0  0  0  0  0  0  0  0  0  0  0
    4.2135   -5.3237    0.0000 C   0  0  0  0  0  0  0  0  0  0  0  0
    3.4635   -4.0247    0.0000 C   0  0  0  0  0  0  0  0  0  0  0  0
  1  2  1  0
  2  3  2  0
  3  4  1  0
  4  5  2  0
  5  6  1  0
  6  7  2  0
  5  8  1  0
  8  9  1  0
  9 10  1  0
 10 11  2  0
 10 12  2  0
 10 13  1  0
 13 14  2  0
 14 15  1  0
 15 16  2  0
 16 17  1  0
 17 18  2  0
  8 19  1  0
 19 20  2  0
 20 21  1  0
 21 22  2  0
 22 23  1  0
 22 24  1  0
 24 25  2  0
  7  2  1  0
 14  8  1  0
 25 19  1  0
 18 13  1  0
M  END
$$$$
