
     RDKit          2D

 64 70  0  0  0  0  0  0  0  0999 V2000
    8.3209   11.8627    0.0000 C   0  0  0  0  0  0  0  0  0  0  0  0
    7.8573   10.4361    0.0000 O   0  0  0  0  0  0  0  0  0  0  0  0
    6.3901   10.1243    0.0000 C   0  0  0  0  0  0  0  0  0  0  0  0
    5.9266    8.6977    0.0000 C   0  0  0  0  0  0  0  0  0  0  0  0
    4.4594    8.3858    0.0000 C   0  0  0  0  0  0  0  0  0  0  0  0
    3.9958    6.9592    0.0000 O   0  0  0  0  0  0  0  0  0  0  0  0
    4.9995    5.8445    0.0000 C   0  0  0  0  0  0  0  0  0  0  0  0
    6.4913    6.0013    0.0000 C   0  0  0  0  0  0  0  0  0  0  0  0
    7.1014    4.6310    0.0000 C   0  0  0  0  0  0  0  0  0  0  0  0
    5.9867    3.6273    0.0000 O   0  0  0  0  0  0  0  0  0  0  0  0
    4.6877    4.3773    0.0000 C   0  0  0  0  0  0  0  0  0  0  0  0
    3.3174    3.7672    0.0000 C   0  0  0  0  0  0  0  0  0  0  0  0
    2.8538    5.1938    0.0000 C   0  0  0  0  0  0  0  0  0  0  0  0
    4.0674    2.4681    0.0000 C   0  0  0  0  0  0  0  0  0  0  0  0
    3.0637    1.3534    0.0000 C   0  0  0  0  0  0  0  0  0  0  0  0
    1.6933    1.9635    0.0000 C   0  0  0  0  0  0  0  0  0  0  0  0
    1.8501    3.4553    0.0000 O   0  0  0  0  0  0  0  0  0  0  0  0
    0.3943    1.2135    0.0000 C   0  0  0  0  0  0  0  0  0  0  0  0
   -0.2158    2.5838    0.0000 C   0  0  0  0  0  0  0  0  0  0  0  0
    1.2760    0.0000    0.0000 C   0  0  0  0  0  0  0  0  0  0  0  0
    0.3943   -1.2135    0.0000 C   0  0  0  0  0  0  0  0  0  0  0  0
   -1.0323   -0.7500    0.0000 C   0  0  0  0  0  0  0  0  0  0  0  0
   -2.4026   -0.1399    0.0000 C   0  0  0  0  0  0  0  0  0  0  0  0
   -3.6161   -1.0216    0.0000 C   0  0  0  0  0  0  0  0  0  0  0  0
   -4.9864   -0.4115    0.0000 O   0  0  0  0  0  0  0  0  0  0  0  0
   -3.4593   -2.5134    0.0000 C   0  0  0  0  0  0  0  0  0  0  0  0
   -4.6729   -3.3950    0.0000 C   0  0  0  0  0  0  0  0  0  0  0  0
   -2.0890   -3.1235    0.0000 C   0  0  0  0  0  0  0  0  0  0  0  0
   -0.8755   -2.2418    0.0000 O   0  0  0  0  0  0  0  0  0  0  0  0
   -1.9322   -4.6152    0.0000 C   0  0  0  0  0  0  0  0  0  0  0  0
   -0.5619   -5.2253    0.0000 C   0  0  0  0  0  0  0  0  0  0  0  0
   -3.1458   -5.4969    0.0000 C   0  0  0  0  0  0  0  0  0  0  0  0
   -4.5161   -4.8868    0.0000 O   0  0  0  0  0  0  0  0  0  0  0  0
   -5.7296   -5.7685    0.0000 C   0  0  0  0  0  0  0  0  0  0  0  0
   -6.3872   -4.4203    0.0000 O   0  0  0  0  0  0  0  0  0  0  0  0
   -7.1715   -6.1820    0.0000 C   0  0  0  0  0  0  0  0  0  0  0  0
   -8.2505   -5.1400    0.0000 C   0  0  0  0  0  0  0  0  0  0  0  0
   -9.6924   -5.5534    0.0000 O   0  0  0  0  0  0  0  0  0  0  0  0
   -7.8876   -3.6845    0.0000 O   0  0  0  0  0  0  0  0  0  0  0  0
   -5.5728   -7.2603    0.0000 C   0  0  0  0  0  0  0  0  0  0  0  0
   -6.7863   -8.1420    0.0000 C   0  0  0  0  0  0  0  0  0  0  0  0
   -4.2025   -7.8704    0.0000 C   0  0  0  0  0  0  0  0  0  0  0  0
   -4.0457   -9.3622    0.0000 O   0  0  0  0  0  0  0  0  0  0  0  0
   -2.6754   -9.9723    0.0000 C   0  0  0  0  0  0  0  0  0  0  0  0
   -2.9890   -6.9887    0.0000 C   0  0  0  0  0  0  0  0  0  0  0  0
   -1.6186   -7.5988    0.0000 O   0  0  0  0  0  0  0  0  0  0  0  0
   -1.4618   -9.0906    0.0000 C   0  0  0  0  0  0  0  0  0  0  0  0
   -1.0323    0.7500    0.0000 O   0  0  0  0  0  0  0  0  0  0  0  0
    8.5686    4.3191    0.0000 C   0  0  0  0  0  0  0  0  0  0  0  0
    9.0322    2.8925    0.0000 O   0  0  0  0  0  0  0  0  0  0  0  0
   10.4994    2.5807    0.0000 C   0  0  0  0  0  0  0  0  0  0  0  0
   11.7715    1.7858    0.0000 C   0  0  0  0  0  0  0  0  0  0  0  0
    9.9375    1.1899    0.0000 O   0  0  0  0  0  0  0  0  0  0  0  0
   11.5031    3.6954    0.0000 C   0  0  0  0  0  0  0  0  0  0  0  0
   12.9703    3.3835    0.0000 C   0  0  0  0  0  0  0  0  0  0  0  0
   11.0396    5.1220    0.0000 C   0  0  0  0  0  0  0  0  0  0  0  0
    9.5723    5.4338    0.0000 C   0  0  0  0  0  0  0  0  0  0  0  0
    9.1088    6.8604    0.0000 C   0  0  0  0  0  0  0  0  0  0  0  0
    3.4557    9.5005    0.0000 O   0  0  0  0  0  0  0  0  0  0  0  0
    3.9192   10.9271    0.0000 C   0  0  0  0  0  0  0  0  0  0  0  0
    2.9155   12.0418    0.0000 C   0  0  0  0  0  0  0  0  0  0  0  0
    5.3864   11.2390    0.0000 C   0  0  0  0  0  0  0  0  0  0  0  0
    5.8499   12.6656    0.0000 O   0  0  0  0  0  0  0  0  0  0  0  0
    7.3172   12.9774    0.0000 C   0  0  0  0  0  0  0  0  0  0  0  0
  1  2  1  0
  2  3  1  0
  3  4  1  0
  4  5  1  0
  5  6  1  0
  6  7  1  0
  7  8  1  0
  8  9  1  0
  9 10  1  0
 10 11  1  0
 11 12  1  0
 12 13  1  0
 12 14  1  0
 14 15  1  0
 15 16  1  0
 16 17  1  0
 16 18  1  0
 18 19  1  0
 18 20  1  0
 20 21  1  0
 21 22  1  0
 22 23  1  0
 23 24  1  0
 24 25  1  0
 24 26  1  0
 26 27  1  0
 26 28  1  0
 28 29  1  0
 28 30  1  0
 30 31  1  0
 30 32  1  0
 32 33  1  0
 33 34  1  0
 34 35  1  0
 34 36  1  0
 36 37  1  0
 37 38  1  0
 37 39  2  0
 34 40  1  0
 40 41  1  0
 40 42  1  0
 42 43  1  0
 43 44  1  0
 42 45  1  0
 45 46  1  0
 46 47  1  0
 22 48  1  0
  9 49  1  0
 49 50  1  0
 50 51  1  0
 51 52  1  0
 51 53  1  0
 51 54  1  0
 54 55  1  0
 54 56  1  0
 56 57  1  0
 57 58  1  0
  5 59  1  0
 59 60  1  0
 60 61  1  0
 60 62  1  0
 62 63  1  0
 63 64  1  0
 62  3  1  0
 11  7  1  0
 17 12  1  0
 48 18  1  0
 57 49  1  0
 29 22  1  0
 45 32  1  0
M  END
$$$$
