
     RDKit          2D

 27 31  0  0  0  0  0  0  0  0999 V2000
    8.0922   -6.3923    0.0000 C   0  0  0  0  0  0  0  0  0  0  0  0
    6.6038   -6.5788    0.0000 C   0  0  0  0  0  0  0  0  0  0  0  0
    5.1155   -6.7653    0.0000 C   0  0  0  0  0  0  0  0  0  0  0  0
    6.7904   -8.0671    0.0000 C   0  0  0  0  0  0  0  0  0  0  0  0
    6.4173   -5.0904    0.0000 C   0  0  0  0  0  0  0  0  0  0  0  0
    7.9155   -5.1652    0.0000 O   0  0  0  0  0  0  0  0  0  0  0  0
    6.7511   -3.6280    0.0000 C   0  0  0  0  0  0  0  0  0  0  0  0
    5.6515   -2.6078    0.0000 C   0  0  0  0  0  0  0  0  0  0  0  0
    4.2182   -3.0499    0.0000 N   0  0  0  0  0  0  0  0  0  0  0  0
    3.1186   -2.0297    0.0000 C   0  0  0  0  0  0  0  0  0  0  0  0
    1.6852   -2.4718    0.0000 C   0  0  0  0  0  0  0  0  0  0  0  0
    0.7500   -1.2990    0.0000 C   0  0  0  0  0  0  0  0  0  0  0  0
    1.5000    0.0000    0.0000 C   0  0  0  0  0  0  0  0  0  0  0  0
    0.7500    1.2990    0.0000 C   0  0  0  0  0  0  0  0  0  0  0  0
   -0.7500    1.2990    0.0000 C   0  0  0  0  0  0  0  0  0  0  0  0
   -1.5000    0.0000    0.0000 C   0  0  0  0  0  0  0  0  0  0  0  0
   -0.7500   -1.2990    0.0000 C   0  0  0  0  0  0  0  0  0  0  0  0
   -1.6852   -2.4718    0.0000 C   0  0  0  0  0  0  0  0  0  0  0  0
   -1.3515   -3.9342    0.0000 C   0  0  0  0  0  0  0  0  0  0  0  0
    0.0000   -4.5850    0.0000 C   0  0  0  0  0  0  0  0  0  0  0  0
    1.3515   -3.9342    0.0000 C   0  0  0  0  0  0  0  0  0  0  0  0
    2.4510   -4.9544    0.0000 C   0  0  0  0  0  0  0  0  0  0  0  0
    2.3455   -6.4555    0.0000 C   0  0  0  0  0  0  0  0  0  0  0  0
    0.9492   -7.0035    0.0000 C   0  0  0  0  0  0  0  0  0  0  0  0
   -0.2236   -6.0682    0.0000 C   0  0  0  0  0  0  0  0  0  0  0  0
    3.8844   -4.5123    0.0000 C   0  0  0  0  0  0  0  0  0  0  0  0
    4.9840   -5.5326    0.0000 C   0  0  0  0  0  0  0  0  0  0  0  0
  1  2  1  0
  2  3  1  0
  2  4  1  0
  2  5  1  0
  5  6  1  0
  5  7  1  0
  7  8  1  0
  8  9  1  0
  9 10  1  0
 10 11  1  0
 11 12  1  0
 12 13  2  0
 13 14  1  0
 14 15  2  0
 15 16  1  0
 16 17  2  0
 17 18  1  0
 18 19  1  0
 19 20  1  0
 20 21  2  0
 21 22  1  0
 22 23  2  0
 23 24  1  0
 24 25  2  0
 22 26  1  0
 26 27  1  0
 27  5  1  0
 26  9  1  0
 21 11  1  0
 17 12  1  0
 25 20  1  0
M  END
$$$$
