
     RDKit          2D

 21 25  0  0  0  0  0  0  0  0999 V2000
   -0.0340    5.0922    0.0000 Cl  0  0  0  0  0  0  0  0  0  0  0  0
   -0.9156    3.8787    0.0000 C   0  0  0  0  0  0  0  0  0  0  0  0
    0.4209    3.1977    0.0000 C   0  0  0  0  0  0  0  0  0  0  0  0
    1.7574    3.8787    0.0000 O   0  0  0  0  0  0  0  0  0  0  0  0
    1.0607    0.0000    0.0000 C   0  0  0  0  0  0  0  0  0  0  0  0
    2.5607    0.0000    0.0000 Cl  0  0  0  0  0  0  0  0  0  0  0  0
   -0.0000   -1.0607    0.0000 C   0  0  0  0  0  0  0  0  0  0  0  0
   -0.0000   -2.5607    0.0000 Cl  0  0  0  0  0  0  0  0  0  0  0  0
   -2.3972    3.6441    0.0000 C   0  0  0  0  0  0  0  0  0  0  0  0
   -3.6107    4.5257    0.0000 Cl  0  0  0  0  0  0  0  0  0  0  0  0
   -2.1625    2.1625    0.0000 C   0  0  0  0  0  0  0  0  0  0  0  0
   -3.6625    2.1625    0.0000 Cl  0  0  0  0  0  0  0  0  0  0  0  0
   -0.6810    2.3972    0.0000 C   0  0  0  0  0  0  0  0  0  0  0  0
    0.1142    2.4527    0.0000 Cl  0  0  0  0  0  0  0  0  0  0  0  0
    0.0000    1.0607    0.0000 C   0  0  0  0  0  0  0  0  0  0  0  0
    1.0922    1.8542    0.0000 Cl  0  0  0  0  0  0  0  0  0  0  0  0
   -1.0607    0.0000    0.0000 C   0  0  0  0  0  0  0  0  0  0  0  0
   -1.9423   -1.2135    0.0000 Cl  0  0  0  0  0  0  0  0  0  0  0  0
   -2.3972    0.6810    0.0000 C   0  0  0  0  0  0  0  0  0  0  0  0
   -2.9347   -0.7194    0.0000 Cl  0  0  0  0  0  0  0  0  0  0  0  0
   -3.8461    1.0692    0.0000 Cl  0  0  0  0  0  0  0  0  0  0  0  0
  1  2  1  0
  2  3  1  0
  3  4  2  0
  3  5  1  0
  5  6  1  0
  5  7  1  0
  7  8  1  0
  7  9  1  0
  9 10  1  0
  9 11  1  0
 11 12  1  0
 11 13  1  0
 13 14  1  0
 13 15  1  0
 15 16  1  0
 15 17  1  0
 17 18  1  0
 17 19  1  0
 19 20  1  0
 19 21  1  0
  9  2  1  0
 19 11  1  0
 13  2  1  0
 15  5  1  0
 17  7  1  0
M  END
$$$$
