
     RDKit          2D

 17 16  0  0  0  0  0  0  0  0999 V2000
    0.0000    0.0000    0.0000 C   0  0  0  0  0  0  0  0  0  0  0  0
    1.2990    0.7500    0.0000 C   0  0  0  0  0  0  0  0  0  0  0  0
    2.5981   -0.0000    0.0000 C   0  0  0  0  0  0  0  0  0  0  0  0
    1.2990    2.2500    0.0000 C   0  0  0  0  0  0  0  0  0  0  0  0
    2.5981    3.0000    0.0000 O   0  0  0  0  0  0  0  0  0  0  0  0
    2.5981    4.5000    0.0000 P   0  0  0  0  0  0  0  0  0  0  0  0
    2.5981    6.0000    0.0000 O   0  0  0  0  0  0  0  0  0  0  0  0
    1.0981    4.5000    0.0000 O   0  0  0  0  0  0  0  0  0  0  0  0
    0.3481    5.7990    0.0000 C   0  0  0  0  0  0  0  0  0  0  0  0
   -1.1519    5.7990    0.0000 C   0  0  0  0  0  0  0  0  0  0  0  0
   -1.9019    7.0981    0.0000 C   0  0  0  0  0  0  0  0  0  0  0  0
   -1.9019    4.5000    0.0000 C   0  0  0  0  0  0  0  0  0  0  0  0
    4.0981    4.5000    0.0000 O   0  0  0  0  0  0  0  0  0  0  0  0
    4.8481    5.7990    0.0000 C   0  0  0  0  0  0  0  0  0  0  0  0
    6.3481    5.7990    0.0000 C   0  0  0  0  0  0  0  0  0  0  0  0
    7.0981    7.0981    0.0000 C   0  0  0  0  0  0  0  0  0  0  0  0
    7.0981    4.5000    0.0000 C   0  0  0  0  0  0  0  0  0  0  0  0
  1  2  1  0
  2  3  1  0
  2  4  1  0
  4  5  1  0
  5  6  1  0
  6  7  2  0
  6  8  1  0
  8  9  1  0
  9 10  1  0
 10 11  1  0
 10 12  1  0
  6 13  1  0
 13 14  1  0
 14 15  1  0
 15 16  1  0
 15 17  1  0
M  END
$$$$
