
     RDKit          2D

 41 45  0  0  0  0  0  0  0  0999 V2000
    4.7181   -1.3609    0.0000 C   0  0  0  0  0  0  0  0  0  0  0  0
    3.3086   -0.8479    0.0000 N   0  0  0  0  0  0  0  0  0  0  0  0
    3.0481    0.6293    0.0000 C   0  0  0  0  0  0  0  0  0  0  0  0
    2.1595   -1.8121    0.0000 C   0  0  0  0  0  0  0  0  0  0  0  0
    2.4200   -3.2893    0.0000 O   0  0  0  0  0  0  0  0  0  0  0  0
    0.7500   -1.2990    0.0000 C   0  0  0  0  0  0  0  0  0  0  0  0
    1.5000    0.0000    0.0000 C   0  0  0  0  0  0  0  0  0  0  0  0
    0.7500    1.2990    0.0000 C   0  0  0  0  0  0  0  0  0  0  0  0
   -0.7500    1.2990    0.0000 N   0  0  0  0  0  0  0  0  0  0  0  0
   -1.5000    2.5981    0.0000 C   0  0  0  0  0  0  0  0  0  0  0  0
   -0.7500    3.8971    0.0000 C   0  0  0  0  0  0  0  0  0  0  0  0
   -1.5000    5.1962    0.0000 C   0  0  0  0  0  0  0  0  0  0  0  0
   -0.0905    5.7092    0.0000 C   0  0  0  0  0  0  0  0  0  0  0  0
    0.1700    7.1864    0.0000 N   0  0  0  0  0  0  0  0  0  0  0  0
   -0.9791    8.1506    0.0000 C   0  0  0  0  0  0  0  0  0  0  0  0
   -2.3886    7.6375    0.0000 C   0  0  0  0  0  0  0  0  0  0  0  0
   -2.6491    6.1603    0.0000 O   0  0  0  0  0  0  0  0  0  0  0  0
    1.5796    7.6994    0.0000 C   0  0  0  0  0  0  0  0  0  0  0  0
    1.8400    9.1766    0.0000 O   0  0  0  0  0  0  0  0  0  0  0  0
    2.7286    6.7352    0.0000 C   0  0  0  0  0  0  0  0  0  0  0  0
    2.4681    5.2580    0.0000 C   0  0  0  0  0  0  0  0  0  0  0  0
    3.6172    4.2939    0.0000 C   0  0  0  0  0  0  0  0  0  0  0  0
    5.0268    4.8069    0.0000 C   0  0  0  0  0  0  0  0  0  0  0  0
    5.2872    6.2841    0.0000 C   0  0  0  0  0  0  0  0  0  0  0  0
    4.1382    7.2483    0.0000 C   0  0  0  0  0  0  0  0  0  0  0  0
   -2.6491    4.2320    0.0000 C   0  0  0  0  0  0  0  0  0  0  0  0
   -4.0586    4.7450    0.0000 C   0  0  0  0  0  0  0  0  0  0  0  0
   -5.2077    3.7808    0.0000 C   0  0  0  0  0  0  0  0  0  0  0  0
   -4.9472    2.3036    0.0000 C   0  0  0  0  0  0  0  0  0  0  0  0
   -6.0963    1.3394    0.0000 Cl  0  0  0  0  0  0  0  0  0  0  0  0
   -3.5377    1.7906    0.0000 C   0  0  0  0  0  0  0  0  0  0  0  0
   -3.2772    0.3134    0.0000 Cl  0  0  0  0  0  0  0  0  0  0  0  0
   -2.3886    2.7548    0.0000 C   0  0  0  0  0  0  0  0  0  0  0  0
   -1.5000    0.0000    0.0000 C   0  0  0  0  0  0  0  0  0  0  0  0
   -0.7500   -1.2990    0.0000 C   0  0  0  0  0  0  0  0  0  0  0  0
    0.4895   -2.7762    0.0000 N   0  0  0  0  0  0  0  0  0  0  0  0
    1.6386   -3.7404    0.0000 C   0  0  0  0  0  0  0  0  0  0  0  0
    1.3781   -5.2176    0.0000 C   0  0  0  0  0  0  0  0  0  0  0  0
   -0.0314   -5.7307    0.0000 C   0  0  0  0  0  0  0  0  0  0  0  0
   -1.1805   -4.7665    0.0000 C   0  0  0  0  0  0  0  0  0  0  0  0
   -0.9200   -3.2893    0.0000 C   0  0  0  0  0  0  0  0  0  0  0  0
  1  2  1  0
  2  3  1  0
  2  4  1  0
  4  5  2  0
  4  6  1  0
  6  7  1  0
  7  8  1  0
  8  9  1  0
  9 10  1  0
 10 11  1  0
 11 12  1  0
 12 13  1  0
 13 14  1  0
 14 15  1  0
 15 16  1  0
 16 17  1  0
 14 18  1  0
 18 19  2  0
 18 20  1  0
 20 21  2  0
 21 22  1  0
 22 23  2  0
 23 24  1  0
 24 25  2  0
 12 26  1  0
 26 27  2  0
 27 28  1  0
 28 29  2  0
 29 30  1  0
 29 31  1  0
 31 32  1  0
 31 33  2  0
  9 34  1  0
 34 35  1  0
  6 36  1  0
 36 37  1  0
 37 38  1  0
 38 39  1  0
 39 40  1  0
 40 41  1  0
 35  6  1  0
 41 36  1  0
 17 12  1  0
 25 20  1  0
 33 26  1  0
M  END
$$$$
