
     RDKit          2D

 41 44  0  0  0  0  0  0  0  0999 V2000
    5.4627   -4.5501    0.0000 C   0  0  0  0  0  0  0  0  0  0  0  0
    3.9955   -4.2382    0.0000 C   0  0  0  0  0  0  0  0  0  0  0  0
    3.5320   -2.8116    0.0000 C   0  0  0  0  0  0  0  0  0  0  0  0
    2.9918   -5.3529    0.0000 C   0  0  0  0  0  0  0  0  0  0  0  0
    1.5000   -5.1962    0.0000 C   0  0  0  0  0  0  0  0  0  0  0  0
    0.7500   -3.8971    0.0000 C   0  0  0  0  0  0  0  0  0  0  0  0
   -0.7500   -3.8971    0.0000 O   0  0  0  0  0  0  0  0  0  0  0  0
    1.5000   -2.5981    0.0000 N   0  0  0  0  0  0  0  0  0  0  0  0
    0.7500   -1.2990    0.0000 C   0  0  0  0  0  0  0  0  0  0  0  0
    1.5000    0.0000    0.0000 C   0  0  0  0  0  0  0  0  0  0  0  0
    0.7500    1.2990    0.0000 C   0  0  0  0  0  0  0  0  0  0  0  0
   -0.7500    1.2990    0.0000 C   0  0  0  0  0  0  0  0  0  0  0  0
   -1.5000    0.0000    0.0000 C   0  0  0  0  0  0  0  0  0  0  0  0
   -0.7500   -1.2990    0.0000 C   0  0  0  0  0  0  0  0  0  0  0  0
    0.8899   -6.5665    0.0000 C   0  0  0  0  0  0  0  0  0  0  0  0
    2.0046   -7.5702    0.0000 C   0  0  0  0  0  0  0  0  0  0  0  0
    3.3037   -6.8202    0.0000 N   0  0  0  0  0  0  0  0  0  0  0  0
    4.6740   -7.4303    0.0000 C   0  0  0  0  0  0  0  0  0  0  0  0
    5.8875   -6.5486    0.0000 C   0  0  0  0  0  0  0  0  0  0  0  0
    7.2578   -7.1587    0.0000 C   0  0  0  0  0  0  0  0  0  0  0  0
    7.4146   -8.6505    0.0000 O   0  0  0  0  0  0  0  0  0  0  0  0
    8.4713   -6.2770    0.0000 C   0  0  0  0  0  0  0  0  0  0  0  0
    9.8417   -6.8871    0.0000 C   0  0  0  0  0  0  0  0  0  0  0  0
    9.9984   -8.3789    0.0000 O   0  0  0  0  0  0  0  0  0  0  0  0
   11.0552   -6.0054    0.0000 C   0  0  0  0  0  0  0  0  0  0  0  0
   12.4255   -6.6156    0.0000 C   0  0  0  0  0  0  0  0  0  0  0  0
   13.6390   -5.7339    0.0000 O   0  0  0  0  0  0  0  0  0  0  0  0
   12.5823   -8.1073    0.0000 O   0  0  0  0  0  0  0  0  0  0  0  0
    1.8478   -9.0619    0.0000 C   0  0  0  0  0  0  0  0  0  0  0  0
    0.4775   -9.6721    0.0000 C   0  0  0  0  0  0  0  0  0  0  0  0
    0.3207  -11.1638    0.0000 C   0  0  0  0  0  0  0  0  0  0  0  0
    1.5342  -12.0455    0.0000 C   0  0  0  0  0  0  0  0  0  0  0  0
    1.3774  -13.5373    0.0000 F   0  0  0  0  0  0  0  0  0  0  0  0
    2.9046  -11.4354    0.0000 C   0  0  0  0  0  0  0  0  0  0  0  0
    3.0613   -9.9436    0.0000 C   0  0  0  0  0  0  0  0  0  0  0  0
   -0.5773   -6.8783    0.0000 C   0  0  0  0  0  0  0  0  0  0  0  0
   -1.5810   -5.7636    0.0000 C   0  0  0  0  0  0  0  0  0  0  0  0
   -3.0482   -6.0755    0.0000 C   0  0  0  0  0  0  0  0  0  0  0  0
   -3.5118   -7.5021    0.0000 C   0  0  0  0  0  0  0  0  0  0  0  0
   -2.5081   -8.6168    0.0000 C   0  0  0  0  0  0  0  0  0  0  0  0
   -1.0409   -8.3049    0.0000 C   0  0  0  0  0  0  0  0  0  0  0  0
  1  2  1  0
  2  3  1  0
  2  4  1  0
  4  5  2  0
  5  6  1  0
  6  7  2  0
  6  8  1  0
  8  9  1  0
  9 10  2  0
 10 11  1  0
 11 12  2  0
 12 13  1  0
 13 14  2  0
  5 15  1  0
 15 16  2  0
 16 17  1  0
 17 18  1  0
 18 19  1  0
 19 20  1  0
 20 21  1  0
 20 22  1  0
 22 23  1  0
 23 24  1  0
 23 25  1  0
 25 26  1  0
 26 27  1  0
 26 28  2  0
 16 29  1  0
 29 30  2  0
 30 31  1  0
 31 32  2  0
 32 33  1  0
 32 34  1  0
 34 35  2  0
 15 36  1  0
 36 37  2  0
 37 38  1  0
 38 39  2  0
 39 40  1  0
 40 41  2  0
 17  4  1  0
 35 29  1  0
 41 36  1  0
 14  9  1  0
M  END
$$$$
