
     RDKit          2D

 15 17  0  0  0  0  0  0  0  0999 V2000
    1.2760    0.0000    0.0000 S   0  0  0  0  0  0  0  0  0  0  0  0
    0.3943    1.2135    0.0000 C   0  0  0  0  0  0  0  0  0  0  0  0
   -1.0323    0.7500    0.0000 C   0  0  0  0  0  0  0  0  0  0  0  0
   -1.0323   -0.7500    0.0000 C   0  0  0  0  0  0  0  0  0  0  0  0
    0.3943   -1.2135    0.0000 C   0  0  0  0  0  0  0  0  0  0  0  0
    0.8578   -2.6401    0.0000 C   0  0  0  0  0  0  0  0  0  0  0  0
    2.2844   -3.1036    0.0000 C   0  0  0  0  0  0  0  0  0  0  0  0
    2.2844   -4.6036    0.0000 C   0  0  0  0  0  0  0  0  0  0  0  0
    0.8578   -5.0672    0.0000 C   0  0  0  0  0  0  0  0  0  0  0  0
   -0.0239   -3.8536    0.0000 S   0  0  0  0  0  0  0  0  0  0  0  0
    0.3943   -6.4937    0.0000 C   0  0  0  0  0  0  0  0  0  0  0  0
    1.2760   -7.7073    0.0000 C   0  0  0  0  0  0  0  0  0  0  0  0
    0.3943   -8.9208    0.0000 C   0  0  0  0  0  0  0  0  0  0  0  0
   -1.0323   -8.4573    0.0000 C   0  0  0  0  0  0  0  0  0  0  0  0
   -1.0323   -6.9573    0.0000 S   0  0  0  0  0  0  0  0  0  0  0  0
  1  2  1  0
  2  3  2  0
  3  4  1  0
  4  5  2  0
  5  6  1  0
  6  7  2  0
  7  8  1  0
  8  9  2  0
  9 10  1  0
  9 11  1  0
 11 12  2  0
 12 13  1  0
 13 14  2  0
 14 15  1  0
  5  1  1  0
 10  6  1  0
 15 11  1  0
M  END
$$$$
