
     RDKit          2D

 22 27  0  0  0  0  0  0  0  0999 V2000
    1.5000    0.0000    0.0000 C   0  0  0  0  0  0  0  0  0  0  0  0
    0.7500   -1.2990    0.0000 C   0  0  0  0  0  0  0  0  0  0  0  0
   -0.7500   -1.2990    0.0000 C   0  0  0  0  0  0  0  0  0  0  0  0
   -1.5000    0.0000    0.0000 C   0  0  0  0  0  0  0  0  0  0  0  0
   -0.7500    1.2990    0.0000 C   0  0  0  0  0  0  0  0  0  0  0  0
    0.7500    1.2990    0.0000 C   0  0  0  0  0  0  0  0  0  0  0  0
   -2.9672   -0.3119    0.0000 C   0  0  0  0  0  0  0  0  0  0  0  0
   -3.1240   -1.8037    0.0000 C   0  0  0  0  0  0  0  0  0  0  0  0
   -1.7537   -2.4138    0.0000 C   0  0  0  0  0  0  0  0  0  0  0  0
   -1.5969   -3.9055    0.0000 C   0  0  0  0  0  0  0  0  0  0  0  0
   -2.8104   -4.7872    0.0000 C   0  0  0  0  0  0  0  0  0  0  0  0
   -4.1807   -4.1771    0.0000 C   0  0  0  0  0  0  0  0  0  0  0  0
   -5.3943   -5.0588    0.0000 C   0  0  0  0  0  0  0  0  0  0  0  0
   -6.7646   -4.4487    0.0000 C   0  0  0  0  0  0  0  0  0  0  0  0
   -6.9214   -2.9569    0.0000 C   0  0  0  0  0  0  0  0  0  0  0  0
   -5.7079   -2.0752    0.0000 C   0  0  0  0  0  0  0  0  0  0  0  0
   -5.5623   -0.4369    0.0000 C   0  0  0  0  0  0  0  0  0  0  0  0
   -4.3008    0.3748    0.0000 C   0  0  0  0  0  0  0  0  0  0  0  0
   -4.3375   -2.6853    0.0000 C   0  0  0  0  0  0  0  0  0  0  0  0
   -5.2375   -6.5506    0.0000 C   0  0  0  0  0  0  0  0  0  0  0  0
   -3.8672   -7.1607    0.0000 C   0  0  0  0  0  0  0  0  0  0  0  0
   -2.6536   -6.2790    0.0000 C   0  0  0  0  0  0  0  0  0  0  0  0
  1  2  2  0
  2  3  1  0
  3  4  2  0
  4  5  1  0
  5  6  2  0
  4  7  1  0
  7  8  1  0
  8  9  2  0
  9 10  1  0
 10 11  2  0
 11 12  1  0
 12 13  1  0
 13 14  1  0
 14 15  2  0
 15 16  1  0
 16 17  2  0
 17 18  1  0
 16 19  1  0
 13 20  2  0
 20 21  1  0
 21 22  2  0
  6  1  1  0
 18  7  2  0
  9  3  1  0
 22 11  1  0
 19  8  1  0
 19 12  2  0
M  END
$$$$
