
     RDKit          2D

 18 18  0  0  0  0  0  0  0  0999 V2000
    5.5816    0.0000    0.0000 O   0  0  0  0  0  0  0  0  0  0  0  0
    4.0816    0.0000    0.0000 C   0  0  0  0  0  0  0  0  0  0  0  0
    3.8060    1.4745    0.0000 C   0  0  0  0  0  0  0  0  0  0  0  0
    3.0164    2.7498    0.0000 C   0  0  0  0  0  0  0  0  0  0  0  0
    1.8193    3.6537    0.0000 C   0  0  0  0  0  0  0  0  0  0  0  0
    0.3766    4.0642    0.0000 C   0  0  0  0  0  0  0  0  0  0  0  0
   -1.1170    3.9258    0.0000 C   0  0  0  0  0  0  0  0  0  0  0  0
   -2.4597    3.2572    0.0000 C   0  0  0  0  0  0  0  0  0  0  0  0
   -3.4703    2.1487    0.0000 C   0  0  0  0  0  0  0  0  0  0  0  0
   -4.0121    0.7500    0.0000 C   0  0  0  0  0  0  0  0  0  0  0  0
   -4.0121   -0.7500    0.0000 C   0  0  0  0  0  0  0  0  0  0  0  0
   -3.4703   -2.1487    0.0000 C   0  0  0  0  0  0  0  0  0  0  0  0
   -2.4597   -3.2572    0.0000 O   0  0  0  0  0  0  0  0  0  0  0  0
   -1.1170   -3.9258    0.0000 C   0  0  0  0  0  0  0  0  0  0  0  0
    0.3766   -4.0642    0.0000 C   0  0  0  0  0  0  0  0  0  0  0  0
    1.8193   -3.6537    0.0000 C   0  0  0  0  0  0  0  0  0  0  0  0
    3.0164   -2.7498    0.0000 C   0  0  0  0  0  0  0  0  0  0  0  0
    3.8060   -1.4745    0.0000 O   0  0  0  0  0  0  0  0  0  0  0  0
  1  2  2  0
  2  3  1  0
  3  4  1  0
  4  5  1  0
  5  6  1  0
  6  7  1  0
  7  8  1  0
  8  9  1  0
  9 10  1  0
 10 11  1  0
 11 12  1  0
 12 13  1  0
 13 14  1  0
 14 15  1  0
 15 16  1  0
 16 17  1  0
 17 18  1  0
 18  2  1  0
M  END
$$$$
