
     RDKit          2D

 60 64  0  0  0  0  0  0  0  0999 V2000
    2.5474  -27.7450    0.0000 C   0  0  0  0  0  0  0  0  0  0  0  0
    2.2355  -26.2778    0.0000 C   0  0  0  0  0  0  0  0  0  0  0  0
    3.3502  -25.2741    0.0000 C   0  0  0  0  0  0  0  0  0  0  0  0
    3.0384  -23.8069    0.0000 N   0  0  0  0  0  0  0  0  0  0  0  0
    1.6118  -23.3434    0.0000 C   0  0  0  0  0  0  0  0  0  0  0  0
    0.4971  -24.3471    0.0000 C   0  0  0  0  0  0  0  0  0  0  0  0
   -0.9295  -23.8835    0.0000 C   0  0  0  0  0  0  0  0  0  0  0  0
    4.1531  -22.8032    0.0000 C   0  0  0  0  0  0  0  0  0  0  0  0
    5.5797  -23.2667    0.0000 O   0  0  0  0  0  0  0  0  0  0  0  0
    3.8412  -21.3360    0.0000 C   0  0  0  0  0  0  0  0  0  0  0  0
    4.9559  -20.3323    0.0000 C   0  0  0  0  0  0  0  0  0  0  0  0
    4.6441  -18.8651    0.0000 C   0  0  0  0  0  0  0  0  0  0  0  0
    5.7588  -17.8614    0.0000 C   0  0  0  0  0  0  0  0  0  0  0  0
    7.1854  -18.3249    0.0000 O   0  0  0  0  0  0  0  0  0  0  0  0
    5.4469  -16.3941    0.0000 O   0  0  0  0  0  0  0  0  0  0  0  0
    6.5616  -15.3904    0.0000 C   0  0  0  0  0  0  0  0  0  0  0  0
    6.2498  -13.9232    0.0000 C   0  0  0  0  0  0  0  0  0  0  0  0
    7.3645  -12.9195    0.0000 C   0  0  0  0  0  0  0  0  0  0  0  0
    7.0526  -11.4523    0.0000 N   0  0  0  0  0  0  0  0  0  0  0  0
    8.1673  -10.4486    0.0000 C   0  0  0  0  0  0  0  0  0  0  0  0
    7.8555   -8.9814    0.0000 C   0  0  0  0  0  0  0  0  0  0  0  0
    6.4289   -8.5179    0.0000 N   0  0  0  0  0  0  0  0  0  0  0  0
    6.1170   -7.0506    0.0000 C   0  0  0  0  0  0  0  0  0  0  0  0
    4.6904   -6.5871    0.0000 C   0  0  0  0  0  0  0  0  0  0  0  0
    4.3786   -5.1199    0.0000 O   0  0  0  0  0  0  0  0  0  0  0  0
    2.9520   -4.6564    0.0000 C   0  0  0  0  0  0  0  0  0  0  0  0
    1.8373   -5.6601    0.0000 O   0  0  0  0  0  0  0  0  0  0  0  0
    2.6401   -3.1891    0.0000 C   0  0  0  0  0  0  0  0  0  0  0  0
    1.2135   -2.7256    0.0000 C   0  0  0  0  0  0  0  0  0  0  0  0
   -0.0000   -3.6073    0.0000 C   0  0  0  0  0  0  0  0  0  0  0  0
   -0.0000   -5.1073    0.0000 C   0  0  0  0  0  0  0  0  0  0  0  0
   -1.2135   -2.7256    0.0000 N   0  0  0  0  0  0  0  0  0  0  0  0
   -2.6401   -3.1891    0.0000 C   0  0  0  0  0  0  0  0  0  0  0  0
   -2.9520   -4.6564    0.0000 O   0  0  0  0  0  0  0  0  0  0  0  0
   -3.7548   -2.1855    0.0000 C   0  0  0  0  0  0  0  0  0  0  0  0
   -3.4430   -0.7182    0.0000 C   0  0  0  0  0  0  0  0  0  0  0  0
   -4.5577    0.2855    0.0000 C   0  0  0  0  0  0  0  0  0  0  0  0
   -5.9843   -0.1781    0.0000 C   0  0  0  0  0  0  0  0  0  0  0  0
   -7.0990    0.8256    0.0000 Cl  0  0  0  0  0  0  0  0  0  0  0  0
   -6.2961   -1.6453    0.0000 C   0  0  0  0  0  0  0  0  0  0  0  0
   -5.1814   -2.6490    0.0000 C   0  0  0  0  0  0  0  0  0  0  0  0
   -0.7500   -1.2990    0.0000 C   0  0  0  0  0  0  0  0  0  0  0  0
    0.7500   -1.2990    0.0000 C   0  0  0  0  0  0  0  0  0  0  0  0
    1.5000    0.0000    0.0000 C   0  0  0  0  0  0  0  0  0  0  0  0
    0.7500    1.2990    0.0000 C   0  0  0  0  0  0  0  0  0  0  0  0
    1.5000    2.5981    0.0000 O   0  0  0  0  0  0  0  0  0  0  0  0
    3.0000    2.5981    0.0000 C   0  0  0  0  0  0  0  0  0  0  0  0
   -0.7500    1.2990    0.0000 C   0  0  0  0  0  0  0  0  0  0  0  0
   -1.5000    0.0000    0.0000 C   0  0  0  0  0  0  0  0  0  0  0  0
    5.3142   -9.5216    0.0000 C   0  0  0  0  0  0  0  0  0  0  0  0
    5.6260  -10.9888    0.0000 C   0  0  0  0  0  0  0  0  0  0  0  0
    2.4146  -20.8725    0.0000 N   0  0  0  0  0  0  0  0  0  0  0  0
    2.1028  -19.4052    0.0000 C   0  0  0  0  0  0  0  0  0  0  0  0
    3.2175  -18.4015    0.0000 O   0  0  0  0  0  0  0  0  0  0  0  0
    0.6762  -18.9417    0.0000 C   0  0  0  0  0  0  0  0  0  0  0  0
   -0.4385  -19.9454    0.0000 C   0  0  0  0  0  0  0  0  0  0  0  0
   -1.8651  -19.4819    0.0000 C   0  0  0  0  0  0  0  0  0  0  0  0
   -2.1770  -18.0147    0.0000 C   0  0  0  0  0  0  0  0  0  0  0  0
   -1.0623  -17.0110    0.0000 C   0  0  0  0  0  0  0  0  0  0  0  0
    0.3643  -17.4745    0.0000 C   0  0  0  0  0  0  0  0  0  0  0  0
  1  2  1  0
  2  3  1  0
  3  4  1  0
  4  5  1  0
  5  6  1  0
  6  7  1  0
  4  8  1  0
  8  9  2  0
  8 10  1  0
 10 11  1  0
 11 12  1  0
 12 13  1  0
 13 14  2  0
 13 15  1  0
 15 16  1  0
 16 17  1  0
 17 18  1  0
 18 19  1  0
 19 20  1  0
 20 21  1  0
 21 22  1  0
 22 23  1  0
 23 24  1  0
 24 25  1  0
 25 26  1  0
 26 27  2  0
 26 28  1  0
 28 29  1  0
 29 30  2  0
 30 31  1  0
 30 32  1  0
 32 33  1  0
 33 34  2  0
 33 35  1  0
 35 36  2  0
 36 37  1  0
 37 38  2  0
 38 39  1  0
 38 40  1  0
 40 41  2  0
 32 42  1  0
 42 43  2  0
 43 44  1  0
 44 45  2  0
 45 46  1  0
 46 47  1  0
 45 48  1  0
 48 49  2  0
 22 50  1  0
 50 51  1  0
 10 52  1  0
 52 53  1  0
 53 54  2  0
 53 55  1  0
 55 56  2  0
 56 57  1  0
 57 58  2  0
 58 59  1  0
 59 60  2  0
 51 19  1  0
 60 55  1  0
 43 29  1  0
 41 35  1  0
 49 42  1  0
M  END
$$$$
