
     RDKit          2D

 11 10  0  0  0  0  0  0  0  0999 V2000
    0.0000    0.0000    0.0000 C   0  0  0  0  0  0  0  0  0  0  0  0
    1.2990    0.7500    0.0000 N   0  0  0  0  0  0  0  0  0  0  0  0
    2.5981   -0.0000    0.0000 C   0  0  0  0  0  0  0  0  0  0  0  0
    1.2990    2.2500    0.0000 C   0  0  0  0  0  0  0  0  0  0  0  0
    2.5981    3.0000    0.0000 S   0  0  0  0  0  0  0  0  0  0  0  0
    0.0000    3.0000    0.0000 S   0  0  0  0  0  0  0  0  0  0  0  0
    0.0000    4.5000    0.0000 C   0  0  0  0  0  0  0  0  0  0  0  0
    1.2990    5.2500    0.0000 S   0  0  0  0  0  0  0  0  0  0  0  0
   -1.2990    5.2500    0.0000 N   0  0  0  0  0  0  0  0  0  0  0  0
   -1.2990    6.7500    0.0000 C   0  0  0  0  0  0  0  0  0  0  0  0
   -2.5981    4.5000    0.0000 C   0  0  0  0  0  0  0  0  0  0  0  0
  1  2  1  0
  2  3  1  0
  2  4  1  0
  4  5  2  0
  4  6  1  0
  6  7  1  0
  7  8  2  0
  7  9  1  0
  9 10  1  0
  9 11  1  0
M  END
$$$$
