
     RDKit          2D

 16 17  0  0  0  0  0  0  0  0999 V2000
    0.3943    1.2135    0.0000 C   0  0  0  0  0  0  0  0  0  0  0  0
    1.2760    0.0000    0.0000 C   0  0  0  0  0  0  0  0  0  0  0  0
    0.3943   -1.2135    0.0000 C   0  0  0  0  0  0  0  0  0  0  0  0
   -1.0323   -0.7500    0.0000 C   0  0  0  0  0  0  0  0  0  0  0  0
   -2.2458   -1.6317    0.0000 C   0  0  0  0  0  0  0  0  0  0  0  0
   -1.9140    0.4635    0.0000 C   0  0  0  0  0  0  0  0  0  0  0  0
   -1.0323    1.6771    0.0000 C   0  0  0  0  0  0  0  0  0  0  0  0
   -3.4140    0.4635    0.0000 O   0  0  0  0  0  0  0  0  0  0  0  0
   -4.1640    1.7626    0.0000 C   0  0  0  0  0  0  0  0  0  0  0  0
   -3.4140    3.0616    0.0000 O   0  0  0  0  0  0  0  0  0  0  0  0
   -5.6640    1.7626    0.0000 C   0  0  0  0  0  0  0  0  0  0  0  0
   -6.4140    3.0616    0.0000 C   0  0  0  0  0  0  0  0  0  0  0  0
   -6.4140    0.4635    0.0000 C   0  0  0  0  0  0  0  0  0  0  0  0
   -1.0323    0.7500    0.0000 C   0  0  0  0  0  0  0  0  0  0  0  0
   -2.5177    0.9588    0.0000 C   0  0  0  0  0  0  0  0  0  0  0  0
   -1.6899    2.0982    0.0000 C   0  0  0  0  0  0  0  0  0  0  0  0
  1  2  1  0
  2  3  1  0
  3  4  1  0
  4  5  1  0
  4  6  1  0
  6  7  1  0
  6  8  1  0
  8  9  1  0
  9 10  2  0
  9 11  1  0
 11 12  1  0
 11 13  2  0
  4 14  1  0
 14 15  1  0
 14 16  1  0
  7  1  1  0
 14  1  1  0
M  END
$$$$
