
     RDKit          2D

 58 63  0  0  0  0  0  0  0  0999 V2000
    3.8971   -1.8107    0.0000 C   0  0  0  0  0  0  0  0  0  0  0  0
    2.5981   -1.0607    0.0000 C   0  0  0  0  0  0  0  0  0  0  0  0
    2.5981    0.4393    0.0000 O   0  0  0  0  0  0  0  0  0  0  0  0
    1.2990   -1.8107    0.0000 O   0  0  0  0  0  0  0  0  0  0  0  0
   -0.0000   -1.0607    0.0000 C   0  0  0  0  0  0  0  0  0  0  0  0
    1.0607    0.0000    0.0000 C   0  0  0  0  0  0  0  0  0  0  0  0
    0.0000    1.0607    0.0000 O   0  0  0  0  0  0  0  0  0  0  0  0
   -1.0607    0.0000    0.0000 C   0  0  0  0  0  0  0  0  0  0  0  0
   -2.5095   -0.3882    0.0000 C   0  0  0  0  0  0  0  0  0  0  0  0
   -2.8978   -1.8371    0.0000 C   0  0  0  0  0  0  0  0  0  0  0  0
   -4.3467   -2.2253    0.0000 O   0  0  0  0  0  0  0  0  0  0  0  0
   -1.8371   -2.8978    0.0000 C   0  0  0  0  0  0  0  0  0  0  0  0
   -3.3243   -3.0936    0.0000 C   0  0  0  0  0  0  0  0  0  0  0  0
   -0.3882   -2.5095    0.0000 C   0  0  0  0  0  0  0  0  0  0  0  0
    0.9108   -3.2595    0.0000 C   0  0  0  0  0  0  0  0  0  0  0  0
    2.1008   -2.3464    0.0000 O   0  0  0  0  0  0  0  0  0  0  0  0
    3.4867   -2.9204    0.0000 C   0  0  0  0  0  0  0  0  0  0  0  0
    3.6824   -4.4076    0.0000 O   0  0  0  0  0  0  0  0  0  0  0  0
    4.6767   -2.0073    0.0000 C   0  0  0  0  0  0  0  0  0  0  0  0
    6.0625   -2.5813    0.0000 C   0  0  0  0  0  0  0  0  0  0  0  0
    7.2525   -1.6682    0.0000 C   0  0  0  0  0  0  0  0  0  0  0  0
    7.0567   -0.1810    0.0000 C   0  0  0  0  0  0  0  0  0  0  0  0
    5.6709    0.3930    0.0000 C   0  0  0  0  0  0  0  0  0  0  0  0
    4.4809   -0.5201    0.0000 C   0  0  0  0  0  0  0  0  0  0  0  0
    1.2990   -4.7084    0.0000 C   0  0  0  0  0  0  0  0  0  0  0  0
    2.7862   -4.9042    0.0000 O   0  0  0  0  0  0  0  0  0  0  0  0
    2.0745   -6.0041    0.0000 C   0  0  0  0  0  0  0  0  0  0  0  0
    1.5005   -7.3899    0.0000 C   0  0  0  0  0  0  0  0  0  0  0  0
    2.4136   -8.5800    0.0000 O   0  0  0  0  0  0  0  0  0  0  0  0
    3.9008   -8.3842    0.0000 C   0  0  0  0  0  0  0  0  0  0  0  0
    4.4748   -6.9984    0.0000 O   0  0  0  0  0  0  0  0  0  0  0  0
    4.8139   -9.5742    0.0000 C   0  0  0  0  0  0  0  0  0  0  0  0
    4.2399  -10.9600    0.0000 O   0  0  0  0  0  0  0  0  0  0  0  0
    6.3011   -9.3784    0.0000 C   0  0  0  0  0  0  0  0  0  0  0  0
    6.8751   -7.9926    0.0000 N   0  0  0  0  0  0  0  0  0  0  0  0
    8.3623   -7.7968    0.0000 C   0  0  0  0  0  0  0  0  0  0  0  0
    9.2754   -8.9868    0.0000 O   0  0  0  0  0  0  0  0  0  0  0  0
    8.9363   -6.4110    0.0000 O   0  0  0  0  0  0  0  0  0  0  0  0
   10.4235   -6.2152    0.0000 C   0  0  0  0  0  0  0  0  0  0  0  0
   10.2277   -4.7280    0.0000 C   0  0  0  0  0  0  0  0  0  0  0  0
   10.6193   -7.7024    0.0000 C   0  0  0  0  0  0  0  0  0  0  0  0
   11.9106   -6.0194    0.0000 C   0  0  0  0  0  0  0  0  0  0  0  0
    7.2142  -10.5685    0.0000 C   0  0  0  0  0  0  0  0  0  0  0  0
    6.6402  -11.9543    0.0000 C   0  0  0  0  0  0  0  0  0  0  0  0
    7.5533  -13.1443    0.0000 C   0  0  0  0  0  0  0  0  0  0  0  0
    9.0405  -12.9485    0.0000 C   0  0  0  0  0  0  0  0  0  0  0  0
    9.6145  -11.5627    0.0000 C   0  0  0  0  0  0  0  0  0  0  0  0
    8.7014  -10.3727    0.0000 C   0  0  0  0  0  0  0  0  0  0  0  0
    0.0133   -7.5857    0.0000 C   0  0  0  0  0  0  0  0  0  0  0  0
   -0.5607   -8.9716    0.0000 C   0  0  0  0  0  0  0  0  0  0  0  0
   -0.8999   -6.3957    0.0000 C   0  0  0  0  0  0  0  0  0  0  0  0
   -2.1989   -5.6457    0.0000 C   0  0  0  0  0  0  0  0  0  0  0  0
   -3.3889   -6.5588    0.0000 O   0  0  0  0  0  0  0  0  0  0  0  0
   -2.5871   -4.1968    0.0000 C   0  0  0  0  0  0  0  0  0  0  0  0
   -4.0743   -4.0010    0.0000 O   0  0  0  0  0  0  0  0  0  0  0  0
    0.5490   -6.0075    0.0000 C   0  0  0  0  0  0  0  0  0  0  0  0
    0.8136   -7.0685    0.0000 C   0  0  0  0  0  0  0  0  0  0  0  0
    1.8609   -6.7348    0.0000 C   0  0  0  0  0  0  0  0  0  0  0  0
  1  2  1  0
  2  3  2  0
  2  4  1  0
  4  5  1  0
  5  6  1  0
  6  7  1  0
  7  8  1  0
  8  9  1  0
  9 10  1  0
 10 11  1  0
 10 12  1  0
 12 13  1  0
 12 14  1  0
 14 15  1  0
 15 16  1  0
 16 17  1  0
 17 18  2  0
 17 19  1  0
 19 20  2  0
 20 21  1  0
 21 22  2  0
 22 23  1  0
 23 24  2  0
 15 25  1  0
 25 26  1  0
 25 27  1  0
 27 28  1  0
 28 29  1  0
 29 30  1  0
 30 31  2  0
 30 32  1  0
 32 33  1  0
 32 34  1  0
 34 35  1  0
 35 36  1  0
 36 37  2  0
 36 38  1  0
 38 39  1  0
 39 40  1  0
 39 41  1  0
 39 42  1  0
 34 43  1  0
 43 44  2  0
 44 45  1  0
 45 46  2  0
 46 47  1  0
 47 48  2  0
 28 49  1  0
 49 50  1  0
 49 51  2  0
 51 52  1  0
 52 53  1  0
 52 54  1  0
 54 55  2  0
 51 56  1  0
 56 57  1  0
 56 58  1  0
  8  5  1  0
 54 12  1  0
 14  5  1  0
 24 19  1  0
 56 25  1  0
 48 43  1  0
M  END
$$$$
