
     RDKit          2D

 24 28  0  0  0  0  0  0  0  0999 V2000
    4.7088    6.9271    0.0000 O   0  0  0  0  0  0  0  0  0  0  0  0
    3.4097    6.1771    0.0000 C   0  0  0  0  0  0  0  0  0  0  0  0
    3.4097    4.6771    0.0000 C   0  0  0  0  0  0  0  0  0  0  0  0
    2.1107    3.9271    0.0000 C   0  0  0  0  0  0  0  0  0  0  0  0
    0.8117    4.6771    0.0000 C   0  0  0  0  0  0  0  0  0  0  0  0
    0.8117    6.1771    0.0000 C   0  0  0  0  0  0  0  0  0  0  0  0
    2.1107    6.9271    0.0000 C   0  0  0  0  0  0  0  0  0  0  0  0
   -0.4874    3.9271    0.0000 C   0  0  0  0  0  0  0  0  0  0  0  0
   -1.9140    3.4635    0.0000 C   0  0  0  0  0  0  0  0  0  0  0  0
   -1.9140    1.9635    0.0000 C   0  0  0  0  0  0  0  0  0  0  0  0
   -1.0323    3.1771    0.0000 C   0  0  0  0  0  0  0  0  0  0  0  0
    0.3943    2.7135    0.0000 C   0  0  0  0  0  0  0  0  0  0  0  0
    0.3943    1.2135    0.0000 C   0  0  0  0  0  0  0  0  0  0  0  0
    1.2760    0.0000    0.0000 C   0  0  0  0  0  0  0  0  0  0  0  0
    0.3943   -1.2135    0.0000 C   0  0  0  0  0  0  0  0  0  0  0  0
   -1.0323   -0.7500    0.0000 C   0  0  0  0  0  0  0  0  0  0  0  0
   -1.0323    0.7500    0.0000 C   0  0  0  0  0  0  0  0  0  0  0  0
   -1.0975    5.2974    0.0000 C   0  0  0  0  0  0  0  0  0  0  0  0
   -0.2158    6.5109    0.0000 C   0  0  0  0  0  0  0  0  0  0  0  0
   -0.8259    7.8812    0.0000 C   0  0  0  0  0  0  0  0  0  0  0  0
   -2.3177    8.0380    0.0000 C   0  0  0  0  0  0  0  0  0  0  0  0
   -2.9278    9.4083    0.0000 O   0  0  0  0  0  0  0  0  0  0  0  0
   -3.1994    6.8245    0.0000 C   0  0  0  0  0  0  0  0  0  0  0  0
   -2.5893    5.4542    0.0000 C   0  0  0  0  0  0  0  0  0  0  0  0
  1  2  1  0
  2  3  2  0
  3  4  1  0
  4  5  2  0
  5  6  1  0
  6  7  2  0
  5  8  1  0
  8  9  1  0
  9 10  1  0
 10 11  1  0
 11 12  1  0
 12 13  1  0
 13 14  1  0
 14 15  1  0
 15 16  1  0
 16 17  1  0
  8 18  1  0
 18 19  2  0
 19 20  1  0
 20 21  2  0
 21 22  1  0
 21 23  1  0
 23 24  2  0
  7  2  1  0
 12  8  1  0
 17 13  1  0
 24 18  1  0
 17 10  1  0
M  END
$$$$
