
     RDKit          2D

 11 10  0  0  0  0  0  0  0  0999 V2000
    0.0000    0.0000    0.0000 C   0  0  0  0  0  0  0  0  0  0  0  0
    1.2990    0.7500    0.0000 Si  0  0  0  0  0  4  0  0  0  0  0  0
    2.5981    1.5000    0.0000 C   0  0  0  0  0  0  0  0  0  0  0  0
    0.5490    2.0490    0.0000 O   0  0  0  0  0  0  0  0  0  0  0  0
    1.2990    3.3481    0.0000 Si  0  0  0  0  0  4  0  0  0  0  0  0
    0.0000    4.0981    0.0000 C   0  0  0  0  0  0  0  0  0  0  0  0
    2.5981    2.5981    0.0000 C   0  0  0  0  0  0  0  0  0  0  0  0
    2.0490    4.6471    0.0000 C   0  0  0  0  0  0  0  0  0  0  0  0
    3.5490    4.6471    0.0000 C   0  0  0  0  0  0  0  0  0  0  0  0
    2.0490   -0.5490    0.0000 C   0  0  0  0  0  0  0  0  0  0  0  0
    3.5490   -0.5490    0.0000 C   0  0  0  0  0  0  0  0  0  0  0  0
  1  2  1  0
  2  3  1  0
  2  4  1  0
  4  5  1  0
  5  6  1  0
  5  7  1  0
  5  8  1  0
  8  9  2  0
  2 10  1  0
 10 11  2  0
M  END
$$$$
