
     RDKit          2D

 23 26  0  0  0  0  0  0  0  0999 V2000
    3.0000    0.0000    0.0000 F   0  0  0  0  0  0  0  0  0  0  0  0
    1.5000    0.0000    0.0000 C   0  0  0  0  0  0  0  0  0  0  0  0
    0.7500   -1.2990    0.0000 C   0  0  0  0  0  0  0  0  0  0  0  0
   -0.7500   -1.2990    0.0000 C   0  0  0  0  0  0  0  0  0  0  0  0
   -1.5000    0.0000    0.0000 C   0  0  0  0  0  0  0  0  0  0  0  0
   -0.7500    1.2990    0.0000 C   0  0  0  0  0  0  0  0  0  0  0  0
    0.7500    1.2990    0.0000 C   0  0  0  0  0  0  0  0  0  0  0  0
   -3.0000    0.0000    0.0000 C   0  0  0  0  0  0  0  0  0  0  0  0
   -3.2605   -1.4772    0.0000 C   0  0  0  0  0  0  0  0  0  0  0  0
   -4.6700   -1.9902    0.0000 N   0  0  0  0  0  0  0  0  0  0  0  0
   -5.0835   -3.4321    0.0000 C   0  0  0  0  0  0  0  0  0  0  0  0
   -6.5826   -3.4845    0.0000 N   0  0  0  0  0  0  0  0  0  0  0  0
   -7.0956   -2.0749    0.0000 C   0  0  0  0  0  0  0  0  0  0  0  0
   -5.9136   -1.1515    0.0000 N   0  0  0  0  0  0  0  0  0  0  0  0
   -4.4095    0.5130    0.0000 O   0  0  0  0  0  0  0  0  0  0  0  0
   -3.2605    1.4772    0.0000 C   0  0  0  0  0  0  0  0  0  0  0  0
   -2.7474    2.8868    0.0000 C   0  0  0  0  0  0  0  0  0  0  0  0
   -1.2702    3.1472    0.0000 C   0  0  0  0  0  0  0  0  0  0  0  0
   -0.3060    1.9982    0.0000 Cl  0  0  0  0  0  0  0  0  0  0  0  0
   -0.7572    4.5568    0.0000 C   0  0  0  0  0  0  0  0  0  0  0  0
   -1.7214    5.7058    0.0000 C   0  0  0  0  0  0  0  0  0  0  0  0
   -3.1986    5.4454    0.0000 C   0  0  0  0  0  0  0  0  0  0  0  0
   -3.7116    4.0358    0.0000 C   0  0  0  0  0  0  0  0  0  0  0  0
  1  2  1  0
  2  3  2  0
  3  4  1  0
  4  5  2  0
  5  6  1  0
  6  7  2  0
  5  8  1  0
  8  9  1  0
  9 10  1  0
 10 11  1  0
 11 12  2  0
 12 13  1  0
 13 14  2  0
  8 15  1  0
 15 16  1  0
 16 17  1  0
 17 18  2  0
 18 19  1  0
 18 20  1  0
 20 21  2  0
 21 22  1  0
 22 23  2  0
  7  2  1  0
 16  8  1  0
 23 17  1  0
 14 10  1  0
M  END
$$$$
