
     RDKit          2D

 29 33  0  0  0  0  0  0  0  0999 V2000
    4.0040   11.9476    0.0000 C   0  0  0  0  0  0  0  0  0  0  0  0
    2.5774   11.4841    0.0000 O   0  0  0  0  0  0  0  0  0  0  0  0
    2.2655   10.0169    0.0000 C   0  0  0  0  0  0  0  0  0  0  0  0
    0.8389    9.5533    0.0000 C   0  0  0  0  0  0  0  0  0  0  0  0
   -0.2758   10.5570    0.0000 O   0  0  0  0  0  0  0  0  0  0  0  0
    0.0361   12.0242    0.0000 C   0  0  0  0  0  0  0  0  0  0  0  0
    0.5271    8.0861    0.0000 C   0  0  0  0  0  0  0  0  0  0  0  0
    1.6418    7.0824    0.0000 C   0  0  0  0  0  0  0  0  0  0  0  0
    1.3299    5.6152    0.0000 C   0  0  0  0  0  0  0  0  0  0  0  0
    2.4446    4.6115    0.0000 C   0  0  0  0  0  0  0  0  0  0  0  0
    3.8712    5.0750    0.0000 C   0  0  0  0  0  0  0  0  0  0  0  0
    4.1831    6.5422    0.0000 O   0  0  0  0  0  0  0  0  0  0  0  0
    3.0684    7.5459    0.0000 C   0  0  0  0  0  0  0  0  0  0  0  0
    3.3802    9.0132    0.0000 C   0  0  0  0  0  0  0  0  0  0  0  0
    2.1328    3.1443    0.0000 O   0  0  0  0  0  0  0  0  0  0  0  0
    0.7062    2.6807    0.0000 C   0  0  0  0  0  0  0  0  0  0  0  0
    0.3943    1.2135    0.0000 C   0  0  0  0  0  0  0  0  0  0  0  0
    1.2760    0.0000    0.0000 C   0  0  0  0  0  0  0  0  0  0  0  0
    0.3943   -1.2135    0.0000 C   0  0  0  0  0  0  0  0  0  0  0  0
   -1.0323   -0.7500    0.0000 O   0  0  0  0  0  0  0  0  0  0  0  0
   -1.0323    0.7500    0.0000 C   0  0  0  0  0  0  0  0  0  0  0  0
   -2.1470    1.7537    0.0000 C   0  0  0  0  0  0  0  0  0  0  0  0
   -1.8351    3.2209    0.0000 C   0  0  0  0  0  0  0  0  0  0  0  0
   -0.4086    3.6844    0.0000 C   0  0  0  0  0  0  0  0  0  0  0  0
   -0.0967    5.1517    0.0000 C   0  0  0  0  0  0  0  0  0  0  0  0
   -1.2114    6.1554    0.0000 O   0  0  0  0  0  0  0  0  0  0  0  0
    0.8578   -2.6401    0.0000 C   0  0  0  0  0  0  0  0  0  0  0  0
   -0.1459   -3.7548    0.0000 C   0  0  0  0  0  0  0  0  0  0  0  0
    2.3250   -2.9520    0.0000 C   0  0  0  0  0  0  0  0  0  0  0  0
  1  2  1  0
  2  3  1  0
  3  4  2  0
  4  5  1  0
  5  6  1  0
  4  7  1  0
  7  8  2  0
  8  9  1  0
  9 10  1  0
 10 11  1  0
 11 12  1  0
 12 13  1  0
 13 14  2  0
 10 15  1  0
 15 16  1  0
 16 17  2  0
 17 18  1  0
 18 19  1  0
 19 20  1  0
 20 21  1  0
 21 22  2  0
 22 23  1  0
 23 24  2  0
 24 25  1  0
 25 26  2  0
 19 27  1  0
 27 28  1  0
 27 29  2  0
 14  3  1  0
 24 16  1  0
 13  8  1  0
 21 17  1  0
 25  9  1  0
M  END
$$$$
