
     RDKit          2D

 24 27  0  0  0  0  0  0  0  0999 V2000
    0.5139    2.2703    0.0000 C   0  0  0  0  0  0  0  0  0  0  0  0
   -0.9779    2.4271    0.0000 O   0  0  0  0  0  0  0  0  0  0  0  0
   -1.8596    1.2135    0.0000 C   0  0  0  0  0  0  0  0  0  0  0  0
   -0.4330    0.7500    0.0000 C   0  0  0  0  0  0  0  0  0  0  0  0
    0.8660    0.0000    0.0000 N   0  0  0  0  0  0  0  0  0  0  0  0
   -0.4330   -0.7500    0.0000 C   0  0  0  0  0  0  0  0  0  0  0  0
   -1.8596   -1.2135    0.0000 C   0  0  0  0  0  0  0  0  0  0  0  0
   -2.7413    0.0000    0.0000 N   0  0  0  0  0  0  0  0  0  0  0  0
   -4.1679    0.4635    0.0000 C   0  0  0  0  0  0  0  0  0  0  0  0
   -4.1679    1.9635    0.0000 C   0  0  0  0  0  0  0  0  0  0  0  0
   -2.7413    2.4271    0.0000 C   0  0  0  0  0  0  0  0  0  0  0  0
   -2.2777    3.8536    0.0000 C   0  0  0  0  0  0  0  0  0  0  0  0
   -0.8105    4.1655    0.0000 O   0  0  0  0  0  0  0  0  0  0  0  0
   -0.3470    5.5921    0.0000 C   0  0  0  0  0  0  0  0  0  0  0  0
    1.1202    5.9040    0.0000 N   0  0  0  0  0  0  0  0  0  0  0  0
   -1.3507    6.7068    0.0000 O   0  0  0  0  0  0  0  0  0  0  0  0
   -5.4669    2.7135    0.0000 C   0  0  0  0  0  0  0  0  0  0  0  0
   -5.4669    4.2135    0.0000 O   0  0  0  0  0  0  0  0  0  0  0  0
   -6.7659    1.9635    0.0000 C   0  0  0  0  0  0  0  0  0  0  0  0
   -8.0650    2.7135    0.0000 N   0  0  0  0  0  0  0  0  0  0  0  0
   -6.7659    0.4635    0.0000 C   0  0  0  0  0  0  0  0  0  0  0  0
   -8.0650   -0.2865    0.0000 C   0  0  0  0  0  0  0  0  0  0  0  0
   -5.4669   -0.2865    0.0000 C   0  0  0  0  0  0  0  0  0  0  0  0
   -5.4669   -1.7865    0.0000 O   0  0  0  0  0  0  0  0  0  0  0  0
  1  2  1  0
  2  3  1  0
  3  4  1  0
  4  5  1  0
  5  6  1  0
  6  7  1  0
  7  8  1  0
  8  9  1  0
  9 10  2  0
 10 11  1  0
 11 12  1  0
 12 13  1  0
 13 14  1  0
 14 15  1  0
 14 16  2  0
 10 17  1  0
 17 18  2  0
 17 19  1  0
 19 20  1  0
 19 21  2  0
 21 22  1  0
 21 23  1  0
 23 24  2  0
  8  3  1  0
 23  9  1  0
 11  3  1  0
  6  4  1  0
M  END
$$$$
