
     RDKit          2D

 30 34  0  0  0  0  0  0  0  0999 V2000
    2.6401   -3.1891    0.0000 C   0  0  0  0  0  0  0  0  0  0  0  0
    1.2135   -2.7256    0.0000 N   0  0  0  0  0  0  0  0  0  0  0  0
   -0.0000   -3.6073    0.0000 C   0  0  0  0  0  0  0  0  0  0  0  0
   -1.2135   -2.7256    0.0000 C   0  0  0  0  0  0  0  0  0  0  0  0
   -2.7202   -2.7406    0.0000 C   0  0  0  0  0  0  0  0  0  0  0  0
   -3.6019   -1.5271    0.0000 C   0  0  0  0  0  0  0  0  0  0  0  0
   -2.9918   -0.1568    0.0000 C   0  0  0  0  0  0  0  0  0  0  0  0
   -3.8735    1.0567    0.0000 C   0  0  0  0  0  0  0  0  0  0  0  0
   -5.3652    0.8999    0.0000 C   0  0  0  0  0  0  0  0  0  0  0  0
   -6.2469    2.1135    0.0000 C   0  0  0  0  0  0  0  0  0  0  0  0
   -5.6368    3.4838    0.0000 N   0  0  0  0  0  0  0  0  0  0  0  0
   -6.5185    4.6973    0.0000 C   0  0  0  0  0  0  0  0  0  0  0  0
   -8.0103    4.5405    0.0000 O   0  0  0  0  0  0  0  0  0  0  0  0
   -5.9084    6.0676    0.0000 O   0  0  0  0  0  0  0  0  0  0  0  0
   -6.7901    7.2812    0.0000 C   0  0  0  0  0  0  0  0  0  0  0  0
   -6.1800    8.6515    0.0000 C   0  0  0  0  0  0  0  0  0  0  0  0
   -4.6882    8.8083    0.0000 C   0  0  0  0  0  0  0  0  0  0  0  0
   -4.0781   10.1786    0.0000 C   0  0  0  0  0  0  0  0  0  0  0  0
   -4.9598   11.3921    0.0000 C   0  0  0  0  0  0  0  0  0  0  0  0
   -6.4515   11.2353    0.0000 C   0  0  0  0  0  0  0  0  0  0  0  0
   -7.0616    9.8650    0.0000 C   0  0  0  0  0  0  0  0  0  0  0  0
   -5.9753   -0.4704    0.0000 C   0  0  0  0  0  0  0  0  0  0  0  0
   -5.0937   -1.6839    0.0000 N   0  0  0  0  0  0  0  0  0  0  0  0
   -5.7038   -3.0542    0.0000 C   0  0  0  0  0  0  0  0  0  0  0  0
   -1.5000    0.0000    0.0000 C   0  0  0  0  0  0  0  0  0  0  0  0
   -0.7500   -1.2990    0.0000 C   0  0  0  0  0  0  0  0  0  0  0  0
    0.7500   -1.2990    0.0000 C   0  0  0  0  0  0  0  0  0  0  0  0
    1.5000    0.0000    0.0000 C   0  0  0  0  0  0  0  0  0  0  0  0
    0.7500    1.2990    0.0000 C   0  0  0  0  0  0  0  0  0  0  0  0
   -0.7500    1.2990    0.0000 C   0  0  0  0  0  0  0  0  0  0  0  0
  1  2  1  0
  2  3  1  0
  3  4  2  0
  4  5  1  0
  5  6  1  0
  6  7  1  0
  7  8  1  0
  8  9  1  0
  9 10  1  0
 10 11  1  0
 11 12  1  0
 12 13  2  0
 12 14  1  0
 14 15  1  0
 15 16  1  0
 16 17  2  0
 17 18  1  0
 18 19  2  0
 19 20  1  0
 20 21  2  0
  9 22  1  0
 22 23  1  0
 23 24  1  0
  7 25  1  0
 25 26  1  0
 26 27  2  0
 27 28  1  0
 28 29  2  0
 29 30  1  0
 27  2  1  0
 26  4  1  0
 23  6  1  0
 30 25  2  0
 21 16  1  0
M  END
$$$$
