
     RDKit          2D

  7  6  0  0  0  0  0  0  0  0999 V2000
   -1.2990    0.7500    0.0000 N   0  0  0  0  0  0  0  0  0  0  0  0
    0.0000    0.0000    0.0000 C   0  0  0  0  0  0  0  0  0  0  0  0
    1.2990    0.7500    0.0000 C   0  0  0  0  0  0  0  0  0  0  0  0
    2.5981   -0.0000    0.0000 S   0  0  0  0  0  0  0  0  0  0  0  0
    3.8971   -0.7500    0.0000 O   0  0  0  0  0  0  0  0  0  0  0  0
    3.3481    1.2990    0.0000 O   0  0  0  0  0  0  0  0  0  0  0  0
    1.8481   -1.2990    0.0000 O   0  0  0  0  0  0  0  0  0  0  0  0
  1  2  1  0
  2  3  1  0
  3  4  1  0
  4  5  1  0
  4  6  2  0
  4  7  2  0
M  END
$$$$
