
     RDKit          2D

 45 49  0  0  0  0  0  0  0  0999 V2000
    3.7500   -1.2990    0.0000 C   0  0  0  0  0  0  0  0  0  0  0  0
    3.0000    0.0000    0.0000 C   0  0  0  0  0  0  0  0  0  0  0  0
    1.5000    0.0000    0.0000 C   0  0  0  0  0  0  0  0  0  0  0  0
    0.7500   -1.2990    0.0000 C   0  0  0  0  0  0  0  0  0  0  0  0
    1.5000   -2.5981    0.0000 O   0  0  0  0  0  0  0  0  0  0  0  0
    0.7500   -3.8971    0.0000 C   0  0  0  0  0  0  0  0  0  0  0  0
    1.5000   -5.1962    0.0000 C   0  0  0  0  0  0  0  0  0  0  0  0
    0.7500   -6.4952    0.0000 O   0  0  0  0  0  0  0  0  0  0  0  0
    3.0000   -5.1962    0.0000 O   0  0  0  0  0  0  0  0  0  0  0  0
   -0.7500   -1.2990    0.0000 C   0  0  0  0  0  0  0  0  0  0  0  0
   -1.5000    0.0000    0.0000 C   0  0  0  0  0  0  0  0  0  0  0  0
   -0.7500    1.2990    0.0000 C   0  0  0  0  0  0  0  0  0  0  0  0
   -1.5000    2.5981    0.0000 S   0  0  0  0  0  0  0  0  0  0  0  0
   -0.7500    3.8971    0.0000 C   0  0  0  0  0  0  0  0  0  0  0  0
   -1.5000    5.1962    0.0000 C   0  0  0  0  0  0  0  0  0  0  0  0
   -2.9918    5.3529    0.0000 C   0  0  0  0  0  0  0  0  0  0  0  0
   -3.9955    4.2382    0.0000 C   0  0  0  0  0  0  0  0  0  0  0  0
   -5.4627    4.5501    0.0000 N   0  0  0  0  0  0  0  0  0  0  0  0
   -5.9262    5.9767    0.0000 C   0  0  0  0  0  0  0  0  0  0  0  0
   -7.3934    6.2885    0.0000 C   0  0  0  0  0  0  0  0  0  0  0  0
   -8.3971    5.1738    0.0000 N   0  0  0  0  0  0  0  0  0  0  0  0
   -7.9336    3.7472    0.0000 C   0  0  0  0  0  0  0  0  0  0  0  0
   -6.4664    3.4354    0.0000 C   0  0  0  0  0  0  0  0  0  0  0  0
   -9.8644    5.4857    0.0000 C   0  0  0  0  0  0  0  0  0  0  0  0
  -10.3279    6.9123    0.0000 C   0  0  0  0  0  0  0  0  0  0  0  0
  -11.7951    7.2242    0.0000 C   0  0  0  0  0  0  0  0  0  0  0  0
  -12.7988    6.1094    0.0000 C   0  0  0  0  0  0  0  0  0  0  0  0
  -14.2660    6.4213    0.0000 O   0  0  0  0  0  0  0  0  0  0  0  0
  -14.7296    7.8479    0.0000 C   0  0  0  0  0  0  0  0  0  0  0  0
  -12.3353    4.6828    0.0000 C   0  0  0  0  0  0  0  0  0  0  0  0
  -10.8681    4.3710    0.0000 C   0  0  0  0  0  0  0  0  0  0  0  0
   -3.3037    6.8202    0.0000 N   0  0  0  0  0  0  0  0  0  0  0  0
   -2.0046    7.5702    0.0000 C   0  0  0  0  0  0  0  0  0  0  0  0
   -0.8899    6.5665    0.0000 S   0  0  0  0  0  0  0  0  0  0  0  0
   -1.8478    9.0619    0.0000 C   0  0  0  0  0  0  0  0  0  0  0  0
   -0.4775    9.6721    0.0000 C   0  0  0  0  0  0  0  0  0  0  0  0
   -0.3207   11.1638    0.0000 C   0  0  0  0  0  0  0  0  0  0  0  0
   -1.5342   12.0455    0.0000 C   0  0  0  0  0  0  0  0  0  0  0  0
   -2.9046   11.4354    0.0000 C   0  0  0  0  0  0  0  0  0  0  0  0
   -3.0613    9.9436    0.0000 C   0  0  0  0  0  0  0  0  0  0  0  0
   -1.3774   13.5373    0.0000 C   0  0  0  0  0  0  0  0  0  0  0  0
   -1.2206   15.0291    0.0000 F   0  0  0  0  0  0  0  0  0  0  0  0
    0.1143   13.3805    0.0000 F   0  0  0  0  0  0  0  0  0  0  0  0
   -2.8692   13.6941    0.0000 F   0  0  0  0  0  0  0  0  0  0  0  0
    0.7500    1.2990    0.0000 C   0  0  0  0  0  0  0  0  0  0  0  0
  1  2  1  0
  2  3  1  0
  3  4  2  0
  4  5  1  0
  5  6  1  0
  6  7  1  0
  7  8  1  0
  7  9  2  0
  4 10  1  0
 10 11  2  0
 11 12  1  0
 12 13  1  0
 13 14  1  0
 14 15  1  0
 15 16  2  0
 16 17  1  0
 17 18  1  0
 18 19  1  0
 19 20  1  0
 20 21  1  0
 21 22  1  0
 22 23  1  0
 21 24  1  0
 24 25  2  0
 25 26  1  0
 26 27  2  0
 27 28  1  0
 28 29  1  0
 27 30  1  0
 30 31  2  0
 16 32  1  0
 32 33  2  0
 33 34  1  0
 33 35  1  0
 35 36  2  0
 36 37  1  0
 37 38  2  0
 38 39  1  0
 39 40  2  0
 38 41  1  0
 41 42  1  0
 41 43  1  0
 41 44  1  0
 12 45  2  0
 45  3  1  0
 34 15  1  0
 40 35  1  0
 23 18  1  0
 31 24  1  0
M  END
$$$$
