
     RDKit          2D

 45 49  0  0  0  0  0  0  0  0999 V2000
   12.5341    1.2141    0.0000 C   0  0  0  0  0  0  0  0  0  0  0  0
   11.0669    0.9023    0.0000 C   0  0  0  0  0  0  0  0  0  0  0  0
    9.5996    0.5904    0.0000 C   0  0  0  0  0  0  0  0  0  0  0  0
   10.7550    2.3695    0.0000 C   0  0  0  0  0  0  0  0  0  0  0  0
   11.3787   -0.5649    0.0000 N   0  0  0  0  0  0  0  0  0  0  0  0
   10.2640   -1.5686    0.0000 C   0  0  0  0  0  0  0  0  0  0  0  0
    8.8374   -1.1051    0.0000 O   0  0  0  0  0  0  0  0  0  0  0  0
   10.5759   -3.0359    0.0000 C   0  0  0  0  0  0  0  0  0  0  0  0
   12.0025   -3.4994    0.0000 C   0  0  0  0  0  0  0  0  0  0  0  0
   12.3143   -4.9666    0.0000 N   0  0  0  0  0  0  0  0  0  0  0  0
   13.7409   -5.4301    0.0000 C   0  0  0  0  0  0  0  0  0  0  0  0
   14.0528   -6.8974    0.0000 C   0  0  0  0  0  0  0  0  0  0  0  0
   12.9381   -7.9010    0.0000 C   0  0  0  0  0  0  0  0  0  0  0  0
   13.2499   -9.3683    0.0000 N   0  0  0  0  0  0  0  0  0  0  0  0
   14.6765   -9.8318    0.0000 C   0  0  0  0  0  0  0  0  0  0  0  0
   15.7912   -8.8281    0.0000 C   0  0  0  0  0  0  0  0  0  0  0  0
   15.4794   -7.3609    0.0000 C   0  0  0  0  0  0  0  0  0  0  0  0
   11.1996   -5.9703    0.0000 C   0  0  0  0  0  0  0  0  0  0  0  0
    9.7730   -5.5068    0.0000 C   0  0  0  0  0  0  0  0  0  0  0  0
    9.4612   -4.0396    0.0000 N   0  0  0  0  0  0  0  0  0  0  0  0
    8.0346   -3.5760    0.0000 C   0  0  0  0  0  0  0  0  0  0  0  0
    6.9199   -4.5797    0.0000 C   0  0  0  0  0  0  0  0  0  0  0  0
    7.2317   -6.0469    0.0000 O   0  0  0  0  0  0  0  0  0  0  0  0
    5.4933   -4.1162    0.0000 C   0  0  0  0  0  0  0  0  0  0  0  0
    4.3786   -5.1199    0.0000 C   0  0  0  0  0  0  0  0  0  0  0  0
    4.6904   -6.5871    0.0000 C   0  0  0  0  0  0  0  0  0  0  0  0
    3.5757   -7.5908    0.0000 C   0  0  0  0  0  0  0  0  0  0  0  0
    2.1491   -7.1273    0.0000 C   0  0  0  0  0  0  0  0  0  0  0  0
    1.0344   -8.1310    0.0000 C   0  0  0  0  0  0  0  0  0  0  0  0
    1.3463   -9.5982    0.0000 C   0  0  0  0  0  0  0  0  0  0  0  0
    2.7729  -10.0617    0.0000 C   0  0  0  0  0  0  0  0  0  0  0  0
    3.8876   -9.0580    0.0000 C   0  0  0  0  0  0  0  0  0  0  0  0
    2.9520   -4.6564    0.0000 C   0  0  0  0  0  0  0  0  0  0  0  0
    1.8373   -5.6601    0.0000 O   0  0  0  0  0  0  0  0  0  0  0  0
    2.6401   -3.1891    0.0000 N   0  0  0  0  0  0  0  0  0  0  0  0
    1.2135   -2.7256    0.0000 C   0  0  0  0  0  0  0  0  0  0  0  0
   -0.0000   -3.6073    0.0000 C   0  0  0  0  0  0  0  0  0  0  0  0
   -0.0000   -5.1073    0.0000 O   0  0  0  0  0  0  0  0  0  0  0  0
   -1.2135   -2.7256    0.0000 C   0  0  0  0  0  0  0  0  0  0  0  0
   -0.7500   -1.2990    0.0000 C   0  0  0  0  0  0  0  0  0  0  0  0
    0.7500   -1.2990    0.0000 C   0  0  0  0  0  0  0  0  0  0  0  0
    1.5000    0.0000    0.0000 C   0  0  0  0  0  0  0  0  0  0  0  0
    0.7500    1.2990    0.0000 C   0  0  0  0  0  0  0  0  0  0  0  0
   -0.7500    1.2990    0.0000 C   0  0  0  0  0  0  0  0  0  0  0  0
   -1.5000    0.0000    0.0000 C   0  0  0  0  0  0  0  0  0  0  0  0
  1  2  1  0
  2  3  1  0
  2  4  1  0
  2  5  1  0
  5  6  1  0
  6  7  2  0
  6  8  1  0
  8  9  1  0
  9 10  1  0
 10 11  1  0
 11 12  1  0
 12 13  2  0
 13 14  1  0
 14 15  2  0
 15 16  1  0
 16 17  2  0
 10 18  1  0
 18 19  1  0
 19 20  1  0
 20 21  1  0
 21 22  1  0
 22 23  1  0
 22 24  1  0
 24 25  1  0
 25 26  1  0
 26 27  1  0
 27 28  2  0
 28 29  1  0
 29 30  2  0
 30 31  1  0
 31 32  2  0
 25 33  1  0
 33 34  2  0
 33 35  1  0
 35 36  1  0
 36 37  1  0
 37 38  1  0
 37 39  1  0
 39 40  1  0
 40 41  2  0
 41 42  1  0
 42 43  2  0
 43 44  1  0
 44 45  2  0
 20  8  1  0
 32 27  1  0
 41 36  1  0
 17 12  1  0
 45 40  1  0
M  END
$$$$
