
     RDKit          2D

 20 22  0  0  0  0  0  0  0  0999 V2000
    0.7840  -11.0662    0.0000 F   0  0  0  0  0  0  0  0  0  0  0  0
    0.6272   -9.5744    0.0000 C   0  0  0  0  0  0  0  0  0  0  0  0
   -0.8646   -9.7312    0.0000 F   0  0  0  0  0  0  0  0  0  0  0  0
    2.1190   -9.4176    0.0000 F   0  0  0  0  0  0  0  0  0  0  0  0
    0.4704   -8.0826    0.0000 C   0  0  0  0  0  0  0  0  0  0  0  0
   -0.8999   -7.4725    0.0000 O   0  0  0  0  0  0  0  0  0  0  0  0
    1.6839   -7.2010    0.0000 N   0  0  0  0  0  0  0  0  0  0  0  0
    1.5271   -5.7092    0.0000 C   0  0  0  0  0  0  0  0  0  0  0  0
    0.1568   -5.0991    0.0000 C   0  0  0  0  0  0  0  0  0  0  0  0
    0.0000   -3.6073    0.0000 C   0  0  0  0  0  0  0  0  0  0  0  0
    1.2135   -2.7256    0.0000 C   0  0  0  0  0  0  0  0  0  0  0  0
    2.5838   -3.3357    0.0000 C   0  0  0  0  0  0  0  0  0  0  0  0
    2.7406   -4.8275    0.0000 C   0  0  0  0  0  0  0  0  0  0  0  0
    0.7500   -1.2990    0.0000 C   0  0  0  0  0  0  0  0  0  0  0  0
    1.5000    0.0000    0.0000 C   0  0  0  0  0  0  0  0  0  0  0  0
    0.7500    1.2990    0.0000 C   0  0  0  0  0  0  0  0  0  0  0  0
   -0.7500    1.2990    0.0000 C   0  0  0  0  0  0  0  0  0  0  0  0
   -1.5000    0.0000    0.0000 C   0  0  0  0  0  0  0  0  0  0  0  0
   -0.7500   -1.2990    0.0000 C   0  0  0  0  0  0  0  0  0  0  0  0
   -1.2135   -2.7256    0.0000 C   0  0  0  0  0  0  0  0  0  0  0  0
  1  2  1  0
  2  3  1  0
  2  4  1  0
  2  5  1  0
  5  6  2  0
  5  7  1  0
  7  8  1  0
  8  9  2  0
  9 10  1  0
 10 11  2  0
 11 12  1  0
 12 13  2  0
 11 14  1  0
 14 15  2  0
 15 16  1  0
 16 17  2  0
 17 18  1  0
 18 19  2  0
 19 20  1  0
 13  8  1  0
 19 14  1  0
 20 10  1  0
M  END
$$$$
