
     RDKit          2D

 17 16  0  0  0  0  0  0  0  0999 V2000
    0.0000    0.0000    0.0000 C   0  0  0  0  0  0  0  0  0  0  0  0
    1.2990    0.7500    0.0000 C   0  0  0  0  0  0  0  0  0  0  0  0
    2.5981   -0.0000    0.0000 C   0  0  0  0  0  0  0  0  0  0  0  0
    3.8971    0.7500    0.0000 C   0  0  0  0  0  0  0  0  0  0  0  0
    5.1962   -0.0000    0.0000 Sn  0  0  0  0  0  4  0  0  0  0  0  0
    6.4952   -0.7500    0.0000 C   0  0  0  0  0  0  0  0  0  0  0  0
    6.4952   -2.2500    0.0000 C   0  0  0  0  0  0  0  0  0  0  0  0
    7.7942   -3.0000    0.0000 C   0  0  0  0  0  0  0  0  0  0  0  0
    7.7942   -4.5000    0.0000 C   0  0  0  0  0  0  0  0  0  0  0  0
    5.9462    1.2990    0.0000 C   0  0  0  0  0  0  0  0  0  0  0  0
    7.4462    1.2990    0.0000 C   0  0  0  0  0  0  0  0  0  0  0  0
    8.1962    2.5981    0.0000 C   0  0  0  0  0  0  0  0  0  0  0  0
    9.6962    2.5981    0.0000 C   0  0  0  0  0  0  0  0  0  0  0  0
    4.4462   -1.2990    0.0000 C   0  0  0  0  0  0  0  0  0  0  0  0
    5.1962   -2.5981    0.0000 C   0  0  0  0  0  0  0  0  0  0  0  0
    4.4462   -3.8971    0.0000 C   0  0  0  0  0  0  0  0  0  0  0  0
    5.1962   -5.1962    0.0000 C   0  0  0  0  0  0  0  0  0  0  0  0
  1  2  1  0
  2  3  1  0
  3  4  1  0
  4  5  1  0
  5  6  1  0
  6  7  1  0
  7  8  1  0
  8  9  1  0
  5 10  1  0
 10 11  1  0
 11 12  1  0
 12 13  1  0
  5 14  1  0
 14 15  1  0
 15 16  1  0
 16 17  1  0
M  END
$$$$
