
     RDKit          2D

 43 47  0  0  0  0  0  0  0  0999 V2000
    6.0000    2.5981    0.0000 C   0  0  0  0  0  0  0  0  0  0  0  0
    5.2500    1.2990    0.0000 C   0  0  0  0  0  0  0  0  0  0  0  0
    6.0000    0.0000    0.0000 C   0  0  0  0  0  0  0  0  0  0  0  0
    3.7500    1.2990    0.0000 O   0  0  0  0  0  0  0  0  0  0  0  0
    3.0000    0.0000    0.0000 C   0  0  0  0  0  0  0  0  0  0  0  0
    3.7500   -1.2990    0.0000 O   0  0  0  0  0  0  0  0  0  0  0  0
    1.5000    0.0000    0.0000 C   0  0  0  0  0  0  0  0  0  0  0  0
    0.7500   -1.2990    0.0000 C   0  0  0  0  0  0  0  0  0  0  0  0
    1.5000   -2.5981    0.0000 C   0  0  0  0  0  0  0  0  0  0  0  0
    0.7500   -3.8971    0.0000 C   0  0  0  0  0  0  0  0  0  0  0  0
    1.5000   -5.1962    0.0000 C   0  0  0  0  0  0  0  0  0  0  0  0
    3.0000   -5.1962    0.0000 C   0  0  0  0  0  0  0  0  0  0  0  0
    3.7500   -3.8971    0.0000 C   0  0  0  0  0  0  0  0  0  0  0  0
    3.0000   -2.5981    0.0000 C   0  0  0  0  0  0  0  0  0  0  0  0
    0.7500   -6.4952    0.0000 N   0  0  0  0  0  4  0  0  0  0  0  0
   -0.7500   -6.4952    0.0000 O   0  0  0  0  0  1  0  0  0  0  0  0
    1.5000   -7.7942    0.0000 O   0  0  0  0  0  0  0  0  0  0  0  0
   -0.7500   -1.2990    0.0000 C   0  0  0  0  0  0  0  0  0  0  0  0
   -1.5000   -2.5981    0.0000 C   0  0  0  0  0  0  0  0  0  0  0  0
   -0.7500   -3.8971    0.0000 O   0  0  0  0  0  0  0  0  0  0  0  0
   -3.0000   -2.5981    0.0000 O   0  0  0  0  0  0  0  0  0  0  0  0
   -3.7500   -3.8971    0.0000 C   0  0  0  0  0  0  0  0  0  0  0  0
   -5.1989   -4.2853    0.0000 C   0  0  0  0  0  0  0  0  0  0  0  0
   -4.8107   -5.7342    0.0000 N   0  0  0  0  0  0  0  0  0  0  0  0
   -3.3618   -5.3460    0.0000 C   0  0  0  0  0  0  0  0  0  0  0  0
   -5.5607   -7.0333    0.0000 C   0  0  0  0  0  0  0  0  0  0  0  0
   -7.0607   -7.0333    0.0000 C   0  0  0  0  0  0  0  0  0  0  0  0
   -7.8107   -5.7342    0.0000 C   0  0  0  0  0  0  0  0  0  0  0  0
   -9.3107   -5.7342    0.0000 C   0  0  0  0  0  0  0  0  0  0  0  0
  -10.0607   -7.0333    0.0000 C   0  0  0  0  0  0  0  0  0  0  0  0
   -9.3107   -8.3323    0.0000 C   0  0  0  0  0  0  0  0  0  0  0  0
   -7.8107   -8.3323    0.0000 C   0  0  0  0  0  0  0  0  0  0  0  0
   -4.8107   -8.3323    0.0000 C   0  0  0  0  0  0  0  0  0  0  0  0
   -5.5607   -9.6313    0.0000 C   0  0  0  0  0  0  0  0  0  0  0  0
   -4.8107  -10.9304    0.0000 C   0  0  0  0  0  0  0  0  0  0  0  0
   -3.3107  -10.9304    0.0000 C   0  0  0  0  0  0  0  0  0  0  0  0
   -2.5607   -9.6313    0.0000 C   0  0  0  0  0  0  0  0  0  0  0  0
   -3.3107   -8.3323    0.0000 C   0  0  0  0  0  0  0  0  0  0  0  0
   -1.5000    0.0000    0.0000 C   0  0  0  0  0  0  0  0  0  0  0  0
   -3.0000    0.0000    0.0000 N   0  0  0  0  0  0  0  0  0  0  0  0
   -0.7500    1.2990    0.0000 N   0  0  0  0  0  0  0  0  0  0  0  0
    0.7500    1.2990    0.0000 C   0  0  0  0  0  0  0  0  0  0  0  0
    1.5000    2.5981    0.0000 C   0  0  0  0  0  0  0  0  0  0  0  0
  1  2  1  0
  2  3  1  0
  2  4  1  0
  4  5  1  0
  5  6  2  0
  5  7  1  0
  7  8  1  0
  8  9  1  0
  9 10  2  0
 10 11  1  0
 11 12  2  0
 12 13  1  0
 13 14  2  0
 11 15  1  0
 15 16  1  0
 15 17  2  0
  8 18  1  0
 18 19  1  0
 19 20  2  0
 19 21  1  0
 21 22  1  0
 22 23  1  0
 23 24  1  0
 24 25  1  0
 24 26  1  0
 26 27  1  0
 27 28  2  0
 28 29  1  0
 29 30  2  0
 30 31  1  0
 31 32  2  0
 26 33  1  0
 33 34  2  0
 34 35  1  0
 35 36  2  0
 36 37  1  0
 37 38  2  0
 18 39  2  0
 39 40  1  0
 39 41  1  0
 41 42  2  0
 42 43  1  0
 42  7  1  0
 14  9  1  0
 25 22  1  0
 32 27  1  0
 38 33  1  0
M  CHG  2  15   1  16  -1
M  END
$$$$
