
     RDKit          2D

 29 28  0  0  0  0  0  0  0  0999 V2000
    0.0000    0.0000    0.0000 C   0  0  0  0  0  0  0  0  0  0  0  0
    1.2990    0.7500    0.0000 C   0  0  0  0  0  0  0  0  0  0  0  0
    2.5981   -0.0000    0.0000 C   0  0  0  0  0  0  0  0  0  0  0  0
    3.8971    0.7500    0.0000 C   0  0  0  0  0  0  0  0  0  0  0  0
    5.1962   -0.0000    0.0000 C   0  0  0  0  0  0  0  0  0  0  0  0
    6.4952    0.7500    0.0000 C   0  0  0  0  0  0  0  0  0  0  0  0
    7.7942   -0.0000    0.0000 C   0  0  0  0  0  0  0  0  0  0  0  0
    5.1962   -1.5000    0.0000 C   0  0  0  0  0  0  0  0  0  0  0  0
    6.4952   -2.2500    0.0000 O   0  0  0  0  0  0  0  0  0  0  0  0
    6.4952   -3.7500    0.0000 P   0  0  0  0  0  0  0  0  0  0  0  0
    6.4952   -5.2500    0.0000 O   0  0  0  0  0  0  0  0  0  0  0  0
    4.9952   -3.7500    0.0000 O   0  0  0  0  0  0  0  0  0  0  0  0
    4.2452   -5.0490    0.0000 C   0  0  0  0  0  0  0  0  0  0  0  0
    2.7452   -5.0490    0.0000 C   0  0  0  0  0  0  0  0  0  0  0  0
    1.9952   -6.3481    0.0000 C   0  0  0  0  0  0  0  0  0  0  0  0
    0.4952   -6.3481    0.0000 C   0  0  0  0  0  0  0  0  0  0  0  0
    1.9952   -3.7500    0.0000 C   0  0  0  0  0  0  0  0  0  0  0  0
    0.4952   -3.7500    0.0000 C   0  0  0  0  0  0  0  0  0  0  0  0
   -0.2548   -2.4510    0.0000 C   0  0  0  0  0  0  0  0  0  0  0  0
   -1.7548   -2.4510    0.0000 C   0  0  0  0  0  0  0  0  0  0  0  0
    7.9952   -3.7500    0.0000 O   0  0  0  0  0  0  0  0  0  0  0  0
    8.7452   -5.0490    0.0000 C   0  0  0  0  0  0  0  0  0  0  0  0
   10.2452   -5.0490    0.0000 C   0  0  0  0  0  0  0  0  0  0  0  0
   10.9952   -6.3481    0.0000 C   0  0  0  0  0  0  0  0  0  0  0  0
   12.4952   -6.3481    0.0000 C   0  0  0  0  0  0  0  0  0  0  0  0
   10.9952   -3.7500    0.0000 C   0  0  0  0  0  0  0  0  0  0  0  0
   12.4952   -3.7500    0.0000 C   0  0  0  0  0  0  0  0  0  0  0  0
   13.2452   -2.4510    0.0000 C   0  0  0  0  0  0  0  0  0  0  0  0
   14.7452   -2.4510    0.0000 C   0  0  0  0  0  0  0  0  0  0  0  0
  1  2  1  0
  2  3  1  0
  3  4  1  0
  4  5  1  0
  5  6  1  0
  6  7  1  0
  5  8  1  0
  8  9  1  0
  9 10  1  0
 10 11  2  0
 10 12  1  0
 12 13  1  0
 13 14  1  0
 14 15  1  0
 15 16  1  0
 14 17  1  0
 17 18  1  0
 18 19  1  0
 19 20  1  0
 10 21  1  0
 21 22  1  0
 22 23  1  0
 23 24  1  0
 24 25  1  0
 23 26  1  0
 26 27  1  0
 27 28  1  0
 28 29  1  0
M  END
$$$$
