
     RDKit          2D

 27 30  0  0  0  0  0  0  0  0999 V2000
    0.5645   -4.1037    0.0000 C   0  0  0  0  0  0  0  0  0  0  0  0
   -0.6082   -3.1685    0.0000 C   0  0  0  0  0  0  0  0  0  0  0  0
   -2.0045   -3.7165    0.0000 C   0  0  0  0  0  0  0  0  0  0  0  0
   -3.1773   -2.7813    0.0000 C   0  0  0  0  0  0  0  0  0  0  0  0
   -2.9537   -1.2980    0.0000 C   0  0  0  0  0  0  0  0  0  0  0  0
   -4.1264   -0.3628    0.0000 C   0  0  0  0  0  0  0  0  0  0  0  0
   -5.5228   -0.9108    0.0000 C   0  0  0  0  0  0  0  0  0  0  0  0
   -3.9029    1.1205    0.0000 C   0  0  0  0  0  0  0  0  0  0  0  0
   -5.0756    2.0557    0.0000 O   0  0  0  0  0  0  0  0  0  0  0  0
   -4.8521    3.5390    0.0000 C   0  0  0  0  0  0  0  0  0  0  0  0
   -3.4558    4.0870    0.0000 O   0  0  0  0  0  0  0  0  0  0  0  0
   -6.0248    4.4742    0.0000 C   0  0  0  0  0  0  0  0  0  0  0  0
   -5.8013    5.9574    0.0000 C   0  0  0  0  0  0  0  0  0  0  0  0
   -6.9740    6.8927    0.0000 C   0  0  0  0  0  0  0  0  0  0  0  0
   -6.7504    8.3759    0.0000 O   0  0  0  0  0  0  0  0  0  0  0  0
   -8.3703    6.3447    0.0000 O   0  0  0  0  0  0  0  0  0  0  0  0
   -2.5066    1.6685    0.0000 O   0  0  0  0  0  0  0  0  0  0  0  0
   -1.3338    0.7332    0.0000 C   0  0  0  0  0  0  0  0  0  0  0  0
    0.1369    0.4384    0.0000 O   0  0  0  0  0  0  0  0  0  0  0  0
    1.0777    1.3515    0.0000 C   0  0  0  0  0  0  0  0  0  0  0  0
    2.0130    2.5242    0.0000 C   0  0  0  0  0  0  0  0  0  0  0  0
    1.7286    0.0000    0.0000 C   0  0  0  0  0  0  0  0  0  0  0  0
    1.0777   -1.3515    0.0000 C   0  0  0  0  0  0  0  0  0  0  0  0
   -0.3846   -1.6852    0.0000 C   0  0  0  0  0  0  0  0  0  0  0  0
   -1.5574   -0.7500    0.0000 C   0  0  0  0  0  0  0  0  0  0  0  0
   -0.3372    0.2231    0.0000 O   0  0  0  0  0  0  0  0  0  0  0  0
   -0.1425    0.3784    0.0000 O   0  0  0  0  0  0  0  0  0  0  0  0
  1  2  1  0
  2  3  1  0
  3  4  1  0
  4  5  1  0
  5  6  1  0
  6  7  1  0
  6  8  1  0
  8  9  1  0
  9 10  1  0
 10 11  2  0
 10 12  1  0
 12 13  1  0
 13 14  1  0
 14 15  1  0
 14 16  2  0
  8 17  1  0
 17 18  1  0
 18 19  1  0
 19 20  1  0
 20 21  1  0
 20 22  1  0
 22 23  1  0
 23 24  1  0
 24 25  1  0
 25 26  1  0
 26 27  1  0
 24  2  1  0
 25  5  1  0
 25 18  1  0
 27 20  1  0
M  END
$$$$
