
     RDKit          2D

 26 25  0  0  0  0  0  0  0  0999 V2000
    0.0000    0.0000    0.0000 C   0  0  0  0  0  0  0  0  0  0  0  0
    1.2990    0.7500    0.0000 C   0  0  0  0  0  0  0  0  0  0  0  0
    2.5981   -0.0000    0.0000 C   0  0  0  0  0  0  0  0  0  0  0  0
    3.8971    0.7500    0.0000 C   0  0  0  0  0  0  0  0  0  0  0  0
    5.1962   -0.0000    0.0000 C   0  0  0  0  0  0  0  0  0  0  0  0
    6.4952    0.7500    0.0000 C   0  0  0  0  0  0  0  0  0  0  0  0
    7.7942   -0.0000    0.0000 C   0  0  0  0  0  0  0  0  0  0  0  0
    5.1962   -1.5000    0.0000 C   0  0  0  0  0  0  0  0  0  0  0  0
    6.4952   -2.2500    0.0000 O   0  0  0  0  0  0  0  0  0  0  0  0
    6.4952   -3.7500    0.0000 C   0  0  0  0  0  0  0  0  0  0  0  0
    5.1962   -4.5000    0.0000 O   0  0  0  0  0  0  0  0  0  0  0  0
    7.7942   -4.5000    0.0000 C   0  0  0  0  0  0  0  0  0  0  0  0
    7.7942   -6.0000    0.0000 C   0  0  0  0  0  0  0  0  0  0  0  0
    9.0933   -6.7500    0.0000 C   0  0  0  0  0  0  0  0  0  0  0  0
    9.0933   -8.2500    0.0000 C   0  0  0  0  0  0  0  0  0  0  0  0
   10.3923   -9.0000    0.0000 C   0  0  0  0  0  0  0  0  0  0  0  0
   11.6913   -8.2500    0.0000 O   0  0  0  0  0  0  0  0  0  0  0  0
   10.3923  -10.5000    0.0000 O   0  0  0  0  0  0  0  0  0  0  0  0
   11.6913  -11.2500    0.0000 C   0  0  0  0  0  0  0  0  0  0  0  0
   11.6913  -12.7500    0.0000 C   0  0  0  0  0  0  0  0  0  0  0  0
   12.9904  -13.5000    0.0000 C   0  0  0  0  0  0  0  0  0  0  0  0
   12.9904  -15.0000    0.0000 C   0  0  0  0  0  0  0  0  0  0  0  0
   10.3923  -13.5000    0.0000 C   0  0  0  0  0  0  0  0  0  0  0  0
   10.3923  -15.0000    0.0000 C   0  0  0  0  0  0  0  0  0  0  0  0
    9.0933  -15.7500    0.0000 C   0  0  0  0  0  0  0  0  0  0  0  0
    9.0933  -17.2500    0.0000 C   0  0  0  0  0  0  0  0  0  0  0  0
  1  2  1  0
  2  3  1  0
  3  4  1  0
  4  5  1  0
  5  6  1  0
  6  7  1  0
  5  8  1  0
  8  9  1  0
  9 10  1  0
 10 11  2  0
 10 12  1  0
 12 13  1  0
 13 14  1  0
 14 15  1  0
 15 16  1  0
 16 17  2  0
 16 18  1  0
 18 19  1  0
 19 20  1  0
 20 21  1  0
 21 22  1  0
 20 23  1  0
 23 24  1  0
 24 25  1  0
 25 26  1  0
M  END
$$$$
