
     RDKit          2D

 20 22  0  0  0  0  0  0  0  0999 V2000
   -0.5030    5.7640    0.0000 Cl  0  0  0  0  0  0  0  0  0  0  0  0
    0.2502    4.4669    0.0000 C   0  0  0  0  0  0  0  0  0  0  0  0
    1.7126    4.1331    0.0000 C   0  0  0  0  0  0  0  0  0  0  0  0
    2.9541    4.9749    0.0000 Cl  0  0  0  0  0  0  0  0  0  0  0  0
    1.8471    2.6391    0.0000 C   0  0  0  0  0  0  0  0  0  0  0  0
    3.3411    2.7736    0.0000 Cl  0  0  0  0  0  0  0  0  0  0  0  0
    1.0777    1.3515    0.0000 C   0  0  0  0  0  0  0  0  0  0  0  0
    1.7286    0.0000    0.0000 C   0  0  0  0  0  0  0  0  0  0  0  0
    1.0777   -1.3515    0.0000 O   0  0  0  0  0  0  0  0  0  0  0  0
   -0.3846   -1.6852    0.0000 S   0  0  0  0  0  0  0  0  0  0  0  0
    0.2662   -3.0367    0.0000 O   0  0  0  0  0  0  0  0  0  0  0  0
   -1.5574   -2.6205    0.0000 O   0  0  0  0  0  0  0  0  0  0  0  0
   -1.5574   -0.7500    0.0000 O   0  0  0  0  0  0  0  0  0  0  0  0
   -1.5574    0.7500    0.0000 C   0  0  0  0  0  0  0  0  0  0  0  0
   -0.3846    1.6852    0.0000 C   0  0  0  0  0  0  0  0  0  0  0  0
   -0.5191    3.1792    0.0000 C   0  0  0  0  0  0  0  0  0  0  0  0
   -1.8068    3.9485    0.0000 Cl  0  0  0  0  0  0  0  0  0  0  0  0
    0.8602    3.7687    0.0000 C   0  0  0  0  0  0  0  0  0  0  0  0
    0.6478    5.2536    0.0000 Cl  0  0  0  0  0  0  0  0  0  0  0  0
    1.6958    5.0144    0.0000 Cl  0  0  0  0  0  0  0  0  0  0  0  0
  1  2  1  0
  2  3  2  0
  3  4  1  0
  3  5  1  0
  5  6  1  0
  5  7  1  0
  7  8  1  0
  8  9  1  0
  9 10  1  0
 10 11  2  0
 10 12  2  0
 10 13  1  0
 13 14  1  0
 14 15  1  0
 15 16  1  0
 16 17  1  0
 16 18  1  0
 18 19  1  0
 18 20  1  0
 16  2  1  0
 18  5  1  0
 15  7  1  0
M  END
$$$$
