
     RDKit          2D

 65 68  0  0  0  0  0  0  0  0999 V2000
   -7.0104    2.9836    0.0000 C   0  0  0  0  0  0  0  0  0  0  0  0
   -8.4693    2.6347    0.0000 O   0  0  0  0  0  0  0  0  0  0  0  0
   -8.8966    1.1969    0.0000 C   0  0  0  0  0  0  0  0  0  0  0  0
   -7.8651    0.1079    0.0000 C   0  0  0  0  0  0  0  0  0  0  0  0
   -8.2924   -1.3300    0.0000 C   0  0  0  0  0  0  0  0  0  0  0  0
   -7.2609   -2.4189    0.0000 C   0  0  0  0  0  0  0  0  0  0  0  0
   -5.8020   -2.0701    0.0000 C   0  0  0  0  0  0  0  0  0  0  0  0
   -5.3747   -0.6323    0.0000 C   0  0  0  0  0  0  0  0  0  0  0  0
   -4.7704   -3.1591    0.0000 C   0  0  0  0  0  0  0  0  0  0  0  0
   -5.7415   -4.3023    0.0000 C   0  0  0  0  0  0  0  0  0  0  0  0
   -6.4441   -5.6276    0.0000 C   0  0  0  0  0  0  0  0  0  0  0  0
   -7.8376   -5.0724    0.0000 O   0  0  0  0  0  0  0  0  0  0  0  0
   -6.8454   -7.0729    0.0000 C   0  0  0  0  0  0  0  0  0  0  0  0
   -8.3257   -6.8303    0.0000 C   0  0  0  0  0  0  0  0  0  0  0  0
   -6.9266   -8.5707    0.0000 C   0  0  0  0  0  0  0  0  0  0  0  0
   -6.6840  -10.0510    0.0000 C   0  0  0  0  0  0  0  0  0  0  0  0
   -8.1293  -10.4523    0.0000 C   0  0  0  0  0  0  0  0  0  0  0  0
   -6.1287  -11.4444    0.0000 C   0  0  0  0  0  0  0  0  0  0  0  0
   -7.4540  -12.1470    0.0000 O   0  0  0  0  0  0  0  0  0  0  0  0
   -5.2870  -12.6860    0.0000 C   0  0  0  0  0  0  0  0  0  0  0  0
   -6.4302  -13.6570    0.0000 O   0  0  0  0  0  0  0  0  0  0  0  0
   -6.1609  -15.1327    0.0000 C   0  0  0  0  0  0  0  0  0  0  0  0
   -4.1980  -13.7175    0.0000 C   0  0  0  0  0  0  0  0  0  0  0  0
   -5.1057  -14.9117    0.0000 O   0  0  0  0  0  0  0  0  0  0  0  0
   -2.9127  -14.4908    0.0000 C   0  0  0  0  0  0  0  0  0  0  0  0
   -3.5425  -15.8522    0.0000 C   0  0  0  0  0  0  0  0  0  0  0  0
   -1.4912  -14.9698    0.0000 C   0  0  0  0  0  0  0  0  0  0  0  0
    0.0000  -15.1320    0.0000 C   0  0  0  0  0  0  0  0  0  0  0  0
    0.0000  -16.6320    0.0000 C   0  0  0  0  0  0  0  0  0  0  0  0
    1.4912  -14.9698    0.0000 C   0  0  0  0  0  0  0  0  0  0  0  0
    2.9127  -14.4908    0.0000 C   0  0  0  0  0  0  0  0  0  0  0  0
    4.1980  -13.7175    0.0000 C   0  0  0  0  0  0  0  0  0  0  0  0
    5.2870  -12.6860    0.0000 C   0  0  0  0  0  0  0  0  0  0  0  0
    6.1287  -11.4444    0.0000 C   0  0  0  0  0  0  0  0  0  0  0  0
    6.6840  -10.0510    0.0000 C   0  0  0  0  0  0  0  0  0  0  0  0
    8.1293  -10.4523    0.0000 C   0  0  0  0  0  0  0  0  0  0  0  0
    6.9266   -8.5707    0.0000 C   0  0  0  0  0  0  0  0  0  0  0  0
    6.8454   -7.0729    0.0000 C   0  0  0  0  0  0  0  0  0  0  0  0
    6.4441   -5.6276    0.0000 C   0  0  0  0  0  0  0  0  0  0  0  0
    7.4700   -4.4677    0.0000 C   0  0  0  0  0  0  0  0  0  0  0  0
    7.3617   -2.9716    0.0000 C   0  0  0  0  0  0  0  0  0  0  0  0
    6.0120   -2.3173    0.0000 C   0  0  0  0  0  0  0  0  0  0  0  0
    5.9037   -0.8212    0.0000 C   0  0  0  0  0  0  0  0  0  0  0  0
    4.7704   -3.1591    0.0000 C   0  0  0  0  0  0  0  0  0  0  0  0
    5.2059   -2.3878    0.0000 O   0  0  0  0  0  0  0  0  0  0  0  0
    5.7415   -4.3023    0.0000 O   0  0  0  0  0  0  0  0  0  0  0  0
    3.5763   -2.2513    0.0000 C   0  0  0  0  0  0  0  0  0  0  0  0
    4.3496   -0.9660    0.0000 O   0  0  0  0  0  0  0  0  0  0  0  0
    2.2149   -1.6215    0.0000 C   0  0  0  0  0  0  0  0  0  0  0  0
    2.6939   -0.2000    0.0000 O   0  0  0  0  0  0  0  0  0  0  0  0
    0.7500   -1.2990    0.0000 N   0  0  0  0  0  0  0  0  0  0  0  0
    1.5000    0.0000    0.0000 C   0  0  0  0  0  0  0  0  0  0  0  0
    0.7500    1.2990    0.0000 C   0  0  0  0  0  0  0  0  0  0  0  0
   -0.7500    1.2990    0.0000 C   0  0  0  0  0  0  0  0  0  0  0  0
   -1.5000    0.0000    0.0000 C   0  0  0  0  0  0  0  0  0  0  0  0
   -0.7500   -1.2990    0.0000 C   0  0  0  0  0  0  0  0  0  0  0  0
   -2.2149   -1.6215    0.0000 C   0  0  0  0  0  0  0  0  0  0  0  0
   -2.6939   -0.2000    0.0000 O   0  0  0  0  0  0  0  0  0  0  0  0
   -3.5763   -2.2513    0.0000 O   0  0  0  0  0  0  0  0  0  0  0  0
    8.4244   -8.6519    0.0000 O   0  0  0  0  0  0  0  0  0  0  0  0
    9.2437   -7.3954    0.0000 C   0  0  0  0  0  0  0  0  0  0  0  0
   -9.7513   -1.6788    0.0000 C   0  0  0  0  0  0  0  0  0  0  0  0
  -10.7828   -0.5898    0.0000 C   0  0  0  0  0  0  0  0  0  0  0  0
  -10.3555    0.8480    0.0000 C   0  0  0  0  0  0  0  0  0  0  0  0
  -11.3870    1.9370    0.0000 O   0  0  0  0  0  0  0  0  0  0  0  0
  1  2  1  0
  2  3  1  0
  3  4  1  0
  4  5  1  0
  5  6  1  0
  6  7  1  0
  7  8  1  0
  7  9  1  0
  9 10  1  0
 10 11  1  0
 11 12  2  0
 11 13  1  0
 13 14  1  0
 13 15  1  0
 15 16  2  0
 16 17  1  0
 16 18  1  0
 18 19  1  0
 18 20  1  0
 20 21  1  0
 21 22  1  0
 20 23  1  0
 23 24  2  0
 23 25  1  0
 25 26  1  0
 25 27  1  0
 27 28  1  0
 28 29  1  0
 28 30  1  0
 30 31  2  0
 31 32  1  0
 32 33  2  0
 33 34  1  0
 34 35  2  0
 35 36  1  0
 35 37  1  0
 37 38  1  0
 38 39  1  0
 39 40  1  0
 40 41  1  0
 41 42  1  0
 42 43  1  0
 42 44  1  0
 44 45  1  0
 44 46  1  0
 44 47  1  0
 47 48  2  0
 47 49  1  0
 49 50  2  0
 49 51  1  0
 51 52  1  0
 52 53  1  0
 53 54  1  0
 54 55  1  0
 55 56  1  0
 56 57  1  0
 57 58  2  0
 57 59  1  0
 37 60  1  0
 60 61  1  0
  5 62  1  0
 62 63  1  0
 63 64  1  0
 64 65  1  0
 64  3  1  0
 59  9  1  0
 46 39  1  0
 56 51  1  0
M  END
$$$$
