
     RDKit          2D

 20 19  0  0  0  0  0  0  0  0999 V2000
   -1.2990    0.7500    0.0000 Br  0  0  0  0  0  0  0  0  0  0  0  0
    0.0000    0.0000    0.0000 C   0  0  0  0  0  0  0  0  0  0  0  0
    1.2990    0.7500    0.0000 C   0  0  0  0  0  0  0  0  0  0  0  0
    1.2990    2.2500    0.0000 Br  0  0  0  0  0  0  0  0  0  0  0  0
    2.5981   -0.0000    0.0000 C   0  0  0  0  0  0  0  0  0  0  0  0
    3.8971    0.7500    0.0000 O   0  0  0  0  0  0  0  0  0  0  0  0
    5.1962   -0.0000    0.0000 P   0  0  0  0  0  0  0  0  0  0  0  0
    6.4952   -0.7500    0.0000 O   0  0  0  0  0  0  0  0  0  0  0  0
    4.4462   -1.2990    0.0000 O   0  0  0  0  0  0  0  0  0  0  0  0
    5.1962   -2.5981    0.0000 C   0  0  0  0  0  0  0  0  0  0  0  0
    4.4462   -3.8971    0.0000 C   0  0  0  0  0  0  0  0  0  0  0  0
    2.9462   -3.8971    0.0000 Br  0  0  0  0  0  0  0  0  0  0  0  0
    5.1962   -5.1962    0.0000 C   0  0  0  0  0  0  0  0  0  0  0  0
    4.4462   -6.4952    0.0000 Br  0  0  0  0  0  0  0  0  0  0  0  0
    5.9462    1.2990    0.0000 O   0  0  0  0  0  0  0  0  0  0  0  0
    7.4462    1.2990    0.0000 C   0  0  0  0  0  0  0  0  0  0  0  0
    8.1962    2.5981    0.0000 C   0  0  0  0  0  0  0  0  0  0  0  0
    7.4462    3.8971    0.0000 Br  0  0  0  0  0  0  0  0  0  0  0  0
    9.6962    2.5981    0.0000 C   0  0  0  0  0  0  0  0  0  0  0  0
   10.4462    3.8971    0.0000 Br  0  0  0  0  0  0  0  0  0  0  0  0
  1  2  1  0
  2  3  1  0
  3  4  1  0
  3  5  1  0
  5  6  1  0
  6  7  1  0
  7  8  2  0
  7  9  1  0
  9 10  1  0
 10 11  1  0
 11 12  1  0
 11 13  1  0
 13 14  1  0
  7 15  1  0
 15 16  1  0
 16 17  1  0
 17 18  1  0
 17 19  1  0
 19 20  1  0
M  END
$$$$
