
     RDKit          2D

 27 26  0  0  0  0  0  0  0  0999 V2000
    0.0000    0.0000    0.0000 C   0  0  0  0  0  0  0  0  0  0  0  0
    1.2990    0.7500    0.0000 C   0  0  0  0  0  0  0  0  0  0  0  0
    2.5981   -0.0000    0.0000 C   0  0  0  0  0  0  0  0  0  0  0  0
    3.8971    0.7500    0.0000 C   0  0  0  0  0  0  0  0  0  0  0  0
    5.1962   -0.0000    0.0000 C   0  0  0  0  0  0  0  0  0  0  0  0
    6.4952    0.7500    0.0000 C   0  0  0  0  0  0  0  0  0  0  0  0
    7.7942   -0.0000    0.0000 C   0  0  0  0  0  0  0  0  0  0  0  0
    9.0933    0.7500    0.0000 C   0  0  0  0  0  0  0  0  0  0  0  0
   10.3923   -0.0000    0.0000 C   0  0  0  0  0  0  0  0  0  0  0  0
   11.6913    0.7500    0.0000 C   0  0  0  0  0  0  0  0  0  0  0  0
   12.9904   -0.0000    0.0000 C   0  0  0  0  0  0  0  0  0  0  0  0
   14.2894    0.7500    0.0000 C   0  0  0  0  0  0  0  0  0  0  0  0
   15.5885   -0.0000    0.0000 N   0  0  0  0  0  4  0  0  0  0  0  0
   14.8385   -1.2990    0.0000 C   0  0  0  0  0  0  0  0  0  0  0  0
   16.3385    1.2990    0.0000 C   0  0  0  0  0  0  0  0  0  0  0  0
   16.8875   -0.7500    0.0000 C   0  0  0  0  0  0  0  0  0  0  0  0
   16.8875   -2.2500    0.0000 C   0  0  0  0  0  0  0  0  0  0  0  0
   18.1865   -3.0000    0.0000 C   0  0  0  0  0  0  0  0  0  0  0  0
   18.1865   -4.5000    0.0000 C   0  0  0  0  0  0  0  0  0  0  0  0
   19.4856   -5.2500    0.0000 C   0  0  0  0  0  0  0  0  0  0  0  0
   19.4856   -6.7500    0.0000 C   0  0  0  0  0  0  0  0  0  0  0  0
   20.7846   -7.5000    0.0000 C   0  0  0  0  0  0  0  0  0  0  0  0
   20.7846   -9.0000    0.0000 C   0  0  0  0  0  0  0  0  0  0  0  0
   22.0836   -9.7500    0.0000 C   0  0  0  0  0  0  0  0  0  0  0  0
   22.0836  -11.2500    0.0000 C   0  0  0  0  0  0  0  0  0  0  0  0
   23.3827  -12.0000    0.0000 C   0  0  0  0  0  0  0  0  0  0  0  0
   23.3827  -13.5000    0.0000 C   0  0  0  0  0  0  0  0  0  0  0  0
  1  2  1  0
  2  3  1  0
  3  4  1  0
  4  5  1  0
  5  6  1  0
  6  7  1  0
  7  8  1  0
  8  9  1  0
  9 10  1  0
 10 11  1  0
 11 12  1  0
 12 13  1  0
 13 14  1  0
 13 15  1  0
 13 16  1  0
 16 17  1  0
 17 18  1  0
 18 19  1  0
 19 20  1  0
 20 21  1  0
 21 22  1  0
 22 23  1  0
 23 24  1  0
 24 25  1  0
 25 26  1  0
 26 27  1  0
M  CHG  1  13   1
M  END
$$$$
