
     RDKit          2D

 30 33  0  0  0  0  0  0  0  0999 V2000
   -6.9282    4.5000    0.0000 C   0  0  0  0  0  0  0  0  0  0  0  0
   -5.6292    3.7500    0.0000 O   0  0  0  0  0  0  0  0  0  0  0  0
   -5.6292    2.2500    0.0000 C   0  0  0  0  0  0  0  0  0  0  0  0
   -6.9282    1.5000    0.0000 C   0  0  0  0  0  0  0  0  0  0  0  0
   -6.9282    0.0000    0.0000 C   0  0  0  0  0  0  0  0  0  0  0  0
   -8.2272   -0.7500    0.0000 C   0  0  0  0  0  0  0  0  0  0  0  0
   -9.5263    0.0000    0.0000 O   0  0  0  0  0  0  0  0  0  0  0  0
   -5.6292   -0.7500    0.0000 C   0  0  0  0  0  0  0  0  0  0  0  0
   -4.3301    0.0000    0.0000 C   0  0  0  0  0  0  0  0  0  0  0  0
   -4.3301    1.5000    0.0000 C   0  0  0  0  0  0  0  0  0  0  0  0
   -3.0311    2.2500    0.0000 C   0  0  0  0  0  0  0  0  0  0  0  0
   -3.0311    3.7500    0.0000 C   0  0  0  0  0  0  0  0  0  0  0  0
   -1.7321    4.5000    0.0000 O   0  0  0  0  0  0  0  0  0  0  0  0
   -1.7321    6.0000    0.0000 C   0  0  0  0  0  0  0  0  0  0  0  0
   -0.4330    6.7500    0.0000 N   0  0  0  0  0  0  0  0  0  0  0  0
   -3.0311    6.7500    0.0000 O   0  0  0  0  0  0  0  0  0  0  0  0
   -1.7321    1.5000    0.0000 C   0  0  0  0  0  0  0  0  0  0  0  0
   -1.7321    3.0000    0.0000 O   0  0  0  0  0  0  0  0  0  0  0  0
   -0.4330    3.7500    0.0000 C   0  0  0  0  0  0  0  0  0  0  0  0
   -0.4330    5.2500    0.0000 C   0  0  0  0  0  0  0  0  0  0  0  0
    0.8660    3.0000    0.0000 O   0  0  0  0  0  0  0  0  0  0  0  0
   -3.0311    0.7500    0.0000 O   0  0  0  0  0  0  0  0  0  0  0  0
   -3.0311   -0.7500    0.0000 N   0  0  0  0  0  0  0  0  0  0  0  0
   -1.7321   -1.5000    0.0000 C   0  0  0  0  0  0  0  0  0  0  0  0
   -0.4330   -0.7500    0.0000 C   0  0  0  0  0  0  0  0  0  0  0  0
   -0.4330    0.7500    0.0000 C   0  0  0  0  0  0  0  0  0  0  0  0
    0.8660    0.0000    0.0000 N   0  0  0  0  0  0  0  0  0  0  0  0
    2.3660    0.0000    0.0000 C   0  0  0  0  0  0  0  0  0  0  0  0
    3.1160   -1.2990    0.0000 C   0  0  0  0  0  0  0  0  0  0  0  0
    3.1160    1.2990    0.0000 O   0  0  0  0  0  0  0  0  0  0  0  0
  1  2  1  0
  2  3  1  0
  3  4  1  0
  4  5  2  0
  5  6  1  0
  6  7  2  0
  5  8  1  0
  8  9  2  0
  9 10  1  0
 10 11  1  0
 11 12  1  0
 12 13  1  0
 13 14  1  0
 14 15  1  0
 14 16  2  0
 11 17  1  0
 17 18  1  0
 18 19  1  0
 19 20  1  0
 19 21  2  0
 17 22  1  0
 22 23  1  0
 23 24  1  0
 24 25  1  0
 25 26  1  0
 26 27  1  0
 27 28  1  0
 28 29  1  0
 28 30  2  0
 10  3  2  0
 26 17  1  0
 23  9  1  0
 27 25  1  0
M  END
$$$$
