
     RDKit          2D

 22 23  0  0  0  0  0  0  0  0999 V2000
    0.9328    9.5018    0.0000 C   0  0  0  0  0  0  0  0  0  0  0  0
    1.9365    8.3871    0.0000 C   0  0  0  0  0  0  0  0  0  0  0  0
    3.4038    8.6990    0.0000 C   0  0  0  0  0  0  0  0  0  0  0  0
    1.4730    6.9605    0.0000 C   0  0  0  0  0  0  0  0  0  0  0  0
    2.4767    5.8458    0.0000 C   0  0  0  0  0  0  0  0  0  0  0  0
    2.7886    4.3786    0.0000 C   0  0  0  0  0  0  0  0  0  0  0  0
    2.3250    2.9520    0.0000 C   0  0  0  0  0  0  0  0  0  0  0  0
    3.3287    1.8373    0.0000 O   0  0  0  0  0  0  0  0  0  0  0  0
    0.8578    2.6401    0.0000 O   0  0  0  0  0  0  0  0  0  0  0  0
    0.3943    1.2135    0.0000 C   0  0  0  0  0  0  0  0  0  0  0  0
    1.2760    0.0000    0.0000 C   0  0  0  0  0  0  0  0  0  0  0  0
    0.3943   -1.2135    0.0000 C   0  0  0  0  0  0  0  0  0  0  0  0
    0.8578   -2.6401    0.0000 O   0  0  0  0  0  0  0  0  0  0  0  0
   -1.0323   -0.7500    0.0000 C   0  0  0  0  0  0  0  0  0  0  0  0
   -2.2458   -1.6317    0.0000 C   0  0  0  0  0  0  0  0  0  0  0  0
   -2.0890   -3.1235    0.0000 C   0  0  0  0  0  0  0  0  0  0  0  0
   -1.9322   -4.6152    0.0000 C   0  0  0  0  0  0  0  0  0  0  0  0
   -1.0323    0.7500    0.0000 C   0  0  0  0  0  0  0  0  0  0  0  0
   -2.2458    1.6317    0.0000 C   0  0  0  0  0  0  0  0  0  0  0  0
    3.9033    5.3823    0.0000 C   0  0  0  0  0  0  0  0  0  0  0  0
    4.6075    6.7067    0.0000 C   0  0  0  0  0  0  0  0  0  0  0  0
    5.0853    4.4588    0.0000 C   0  0  0  0  0  0  0  0  0  0  0  0
  1  2  1  0
  2  3  1  0
  2  4  2  0
  4  5  1  0
  5  6  1  0
  6  7  1  0
  7  8  2  0
  7  9  1  0
  9 10  1  0
 10 11  1  0
 11 12  1  0
 12 13  2  0
 12 14  1  0
 14 15  1  0
 15 16  1  0
 16 17  3  0
 14 18  2  0
 18 19  1  0
  6 20  1  0
 20 21  1  0
 20 22  1  0
 20  5  1  0
 18 10  1  0
M  END
$$$$
