
     RDKit          2D

 17 16  0  0  0  0  0  0  0  0999 V2000
    0.0000    0.0000    0.0000 C   0  0  0  0  0  0  0  0  0  0  0  0
    1.2990    0.7500    0.0000 C   0  0  0  0  0  0  0  0  0  0  0  0
    2.5981   -0.0000    0.0000 N   0  0  0  0  0  0  0  0  0  0  0  0
    3.8971    0.7500    0.0000 P   0  0  0  0  0  0  0  0  0  0  0  0
    3.1471    2.0490    0.0000 S   0  0  0  0  0  0  0  0  0  0  0  0
    5.1962    1.5000    0.0000 O   0  0  0  0  0  0  0  0  0  0  0  0
    5.1962    3.0000    0.0000 C   0  0  0  0  0  0  0  0  0  0  0  0
    4.6471   -0.5490    0.0000 O   0  0  0  0  0  0  0  0  0  0  0  0
    6.1471   -0.5490    0.0000 C   0  0  0  0  0  0  0  0  0  0  0  0
    6.8971   -1.8481    0.0000 C   0  0  0  0  0  0  0  0  0  0  0  0
    6.8971    0.7500    0.0000 C   0  0  0  0  0  0  0  0  0  0  0  0
    8.3971    0.7500    0.0000 C   0  0  0  0  0  0  0  0  0  0  0  0
    9.1471   -0.5490    0.0000 O   0  0  0  0  0  0  0  0  0  0  0  0
    9.1471    2.0490    0.0000 O   0  0  0  0  0  0  0  0  0  0  0  0
   10.6471    2.0490    0.0000 C   0  0  0  0  0  0  0  0  0  0  0  0
   11.3971    3.3481    0.0000 C   0  0  0  0  0  0  0  0  0  0  0  0
   11.3971    0.7500    0.0000 C   0  0  0  0  0  0  0  0  0  0  0  0
  1  2  1  0
  2  3  1  0
  3  4  1  0
  4  5  2  0
  4  6  1  0
  6  7  1  0
  4  8  1  0
  8  9  1  0
  9 10  1  0
  9 11  2  3
 11 12  1  0
 12 13  2  0
 12 14  1  0
 14 15  1  0
 15 16  1  0
 15 17  1  0
M  END
$$$$
