
     RDKit          2D

 33 37  0  0  0  0  0  0  0  0999 V2000
    6.2632    2.4610    0.0000 O   0  0  0  0  0  0  0  0  0  0  0  0
    4.7960    2.1491    0.0000 C   0  0  0  0  0  0  0  0  0  0  0  0
    4.3324    0.7225    0.0000 C   0  0  0  0  0  0  0  0  0  0  0  0
    5.3361   -0.3922    0.0000 I   0  0  0  0  0  0  0  0  0  0  0  0
    2.8652    0.4107    0.0000 C   0  0  0  0  0  0  0  0  0  0  0  0
    1.8615    1.5254    0.0000 C   0  0  0  0  0  0  0  0  0  0  0  0
    2.3250    2.9520    0.0000 C   0  0  0  0  0  0  0  0  0  0  0  0
    1.3213    4.0667    0.0000 O   0  0  0  0  0  0  0  0  0  0  0  0
   -0.1459    3.7548    0.0000 C   0  0  0  0  0  0  0  0  0  0  0  0
   -1.1496    4.8695    0.0000 C   0  0  0  0  0  0  0  0  0  0  0  0
   -0.6860    6.2961    0.0000 I   0  0  0  0  0  0  0  0  0  0  0  0
   -2.6168    4.5577    0.0000 C   0  0  0  0  0  0  0  0  0  0  0  0
   -3.6205    5.6724    0.0000 O   0  0  0  0  0  0  0  0  0  0  0  0
   -3.0803    3.1311    0.0000 C   0  0  0  0  0  0  0  0  0  0  0  0
   -4.5475    2.8192    0.0000 I   0  0  0  0  0  0  0  0  0  0  0  0
   -2.0766    2.0164    0.0000 C   0  0  0  0  0  0  0  0  0  0  0  0
   -0.6094    2.3282    0.0000 C   0  0  0  0  0  0  0  0  0  0  0  0
    0.3943    1.2135    0.0000 C   0  0  0  0  0  0  0  0  0  0  0  0
    1.2760    0.0000    0.0000 O   0  0  0  0  0  0  0  0  0  0  0  0
    0.3943   -1.2135    0.0000 C   0  0  0  0  0  0  0  0  0  0  0  0
    0.8578   -2.6401    0.0000 O   0  0  0  0  0  0  0  0  0  0  0  0
   -1.0323   -0.7500    0.0000 C   0  0  0  0  0  0  0  0  0  0  0  0
   -2.3313   -0.8000    0.0000 C   0  0  0  0  0  0  0  0  0  0  0  0
   -2.3313   -3.0000    0.0000 Cl  0  0  0  0  0  0  0  0  0  0  0  0
   -3.0241   -0.4000    0.0000 C   0  0  0  0  0  0  0  0  0  0  0  0
   -4.9294   -1.5000    0.0000 Cl  0  0  0  0  0  0  0  0  0  0  0  0
   -3.0241    0.4000    0.0000 C   0  0  0  0  0  0  0  0  0  0  0  0
   -4.9294    1.5000    0.0000 Cl  0  0  0  0  0  0  0  0  0  0  0  0
   -2.3313    0.8000    0.0000 C   0  0  0  0  0  0  0  0  0  0  0  0
   -2.4579    1.5515    0.0000 Cl  0  0  0  0  0  0  0  0  0  0  0  0
   -1.0323    0.7500    0.0000 C   0  0  0  0  0  0  0  0  0  0  0  0
    3.7923    3.2638    0.0000 C   0  0  0  0  0  0  0  0  0  0  0  0
    4.2558    4.6904    0.0000 I   0  0  0  0  0  0  0  0  0  0  0  0
  1  2  1  0
  2  3  2  0
  3  4  1  0
  3  5  1  0
  5  6  2  0
  6  7  1  0
  7  8  1  0
  8  9  1  0
  9 10  2  0
 10 11  1  0
 10 12  1  0
 12 13  1  0
 12 14  2  0
 14 15  1  0
 14 16  1  0
 16 17  2  0
 17 18  1  0
 18 19  1  0
 19 20  1  0
 20 21  2  0
 20 22  1  0
 22 23  2  0
 23 24  1  0
 23 25  1  0
 25 26  1  0
 25 27  2  0
 27 28  1  0
 27 29  1  0
 29 30  1  0
 29 31  2  0
  7 32  2  0
 32 33  1  0
 32  2  1  0
 18  6  1  0
 31 18  1  0
 17  9  1  0
 31 22  1  0
M  END
$$$$
