
     RDKit          2D

 41 43  0  0  0  0  0  0  0  0999 V2000
   -1.8978   -5.7890    0.0000 C   0  0  0  0  0  0  0  0  0  0  0  0
   -1.2343   -4.4437    0.0000 C   0  0  0  0  0  0  0  0  0  0  0  0
   -2.0677   -3.1965    0.0000 C   0  0  0  0  0  0  0  0  0  0  0  0
   -3.4535   -3.7705    0.0000 O   0  0  0  0  0  0  0  0  0  0  0  0
   -4.9535   -3.7705    0.0000 C   0  0  0  0  0  0  0  0  0  0  0  0
   -5.2462   -5.2417    0.0000 O   0  0  0  0  0  0  0  0  0  0  0  0
   -6.3393   -3.1965    0.0000 C   0  0  0  0  0  0  0  0  0  0  0  0
   -7.4000   -2.1358    0.0000 C   0  0  0  0  0  0  0  0  0  0  0  0
   -8.6472   -2.9692    0.0000 O   0  0  0  0  0  0  0  0  0  0  0  0
   -7.9740   -0.7500    0.0000 C   0  0  0  0  0  0  0  0  0  0  0  0
   -9.0729   -1.2683    0.0000 C   0  0  0  0  0  0  0  0  0  0  0  0
   -7.9740    0.7500    0.0000 C   0  0  0  0  0  0  0  0  0  0  0  0
   -9.4452    1.0426    0.0000 O   0  0  0  0  0  0  0  0  0  0  0  0
  -10.4342   -0.0851    0.0000 C   0  0  0  0  0  0  0  0  0  0  0  0
   -9.9521   -1.5055    0.0000 O   0  0  0  0  0  0  0  0  0  0  0  0
  -10.9411   -2.6333    0.0000 C   0  0  0  0  0  0  0  0  0  0  0  0
  -10.4589   -4.0537    0.0000 C   0  0  0  0  0  0  0  0  0  0  0  0
  -12.4123   -2.3406    0.0000 C   0  0  0  0  0  0  0  0  0  0  0  0
  -12.8944   -0.9202    0.0000 C   0  0  0  0  0  0  0  0  0  0  0  0
  -11.9054    0.2075    0.0000 C   0  0  0  0  0  0  0  0  0  0  0  0
  -12.3876    1.6279    0.0000 O   0  0  0  0  0  0  0  0  0  0  0  0
  -14.3656   -0.6276    0.0000 N   0  0  0  0  0  0  0  0  0  0  0  0
  -15.3546   -1.7554    0.0000 C   0  0  0  0  0  0  0  0  0  0  0  0
  -14.8478    0.7928    0.0000 C   0  0  0  0  0  0  0  0  0  0  0  0
   -7.4000    2.1358    0.0000 C   0  0  0  0  0  0  0  0  0  0  0  0
   -8.6472    2.9692    0.0000 C   0  0  0  0  0  0  0  0  0  0  0  0
   -8.5491    4.4660    0.0000 C   0  0  0  0  0  0  0  0  0  0  0  0
   -9.7963    5.2993    0.0000 O   0  0  0  0  0  0  0  0  0  0  0  0
   -6.3393    3.1965    0.0000 C   0  0  0  0  0  0  0  0  0  0  0  0
   -4.9535    3.7705    0.0000 C   0  0  0  0  0  0  0  0  0  0  0  0
   -5.2462    5.2417    0.0000 C   0  0  0  0  0  0  0  0  0  0  0  0
   -3.4535    3.7705    0.0000 C   0  0  0  0  0  0  0  0  0  0  0  0
   -3.1609    5.2417    0.0000 O   0  0  0  0  0  0  0  0  0  0  0  0
   -2.0677    3.1965    0.0000 C   0  0  0  0  0  0  0  0  0  0  0  0
   -1.0070    2.1358    0.0000 C   0  0  0  0  0  0  0  0  0  0  0  0
   -0.4330    0.7500    0.0000 C   0  0  0  0  0  0  0  0  0  0  0  0
    0.6947    1.7390    0.0000 C   0  0  0  0  0  0  0  0  0  0  0  0
    0.8660    0.0000    0.0000 O   0  0  0  0  0  0  0  0  0  0  0  0
   -0.4330   -0.7500    0.0000 C   0  0  0  0  0  0  0  0  0  0  0  0
   -1.0070   -2.1358    0.0000 C   0  0  0  0  0  0  0  0  0  0  0  0
    0.2402   -2.9692    0.0000 C   0  0  0  0  0  0  0  0  0  0  0  0
  1  2  1  0
  2  3  1  0
  3  4  1  0
  4  5  1  0
  5  6  2  0
  5  7  1  0
  7  8  1  0
  8  9  1  0
  8 10  1  0
 10 11  1  0
 10 12  1  0
 12 13  1  0
 13 14  1  0
 14 15  1  0
 15 16  1  0
 16 17  1  0
 16 18  1  0
 18 19  1  0
 19 20  1  0
 20 21  1  0
 19 22  1  0
 22 23  1  0
 22 24  1  0
 12 25  1  0
 25 26  1  0
 26 27  1  0
 27 28  2  0
 25 29  1  0
 29 30  1  0
 30 31  1  0
 30 32  1  0
 32 33  2  0
 32 34  1  0
 34 35  2  0
 35 36  1  0
 36 37  1  0
 36 38  1  0
 38 39  1  0
 39 40  1  0
 40 41  1  0
 40  3  1  0
 20 14  1  0
 39 36  1  0
M  END
$$$$
