
     RDKit          2D

 34 36  0  0  0  0  0  0  0  0999 V2000
  -12.8923    8.8615    0.0000 C   0  0  0  0  0  0  0  0  0  0  0  0
  -11.3969    8.7438    0.0000 C   0  0  0  0  0  0  0  0  0  0  0  0
  -10.7511    7.3900    0.0000 N   0  0  0  0  0  0  0  0  0  0  0  0
  -11.6007    6.1538    0.0000 C   0  0  0  0  0  0  0  0  0  0  0  0
  -13.0961    6.2715    0.0000 C   0  0  0  0  0  0  0  0  0  0  0  0
   -9.2557    7.2723    0.0000 C   0  0  0  0  0  0  0  0  0  0  0  0
   -8.6100    5.9184    0.0000 C   0  0  0  0  0  0  0  0  0  0  0  0
   -7.1146    5.8007    0.0000 S   0  0  0  0  0  0  0  0  0  0  0  0
   -6.4688    4.4468    0.0000 C   0  0  0  0  0  0  0  0  0  0  0  0
   -4.9735    4.3291    0.0000 C   0  0  0  0  0  0  0  0  0  0  0  0
   -4.1239    5.5653    0.0000 O   0  0  0  0  0  0  0  0  0  0  0  0
   -4.3277    2.9753    0.0000 O   0  0  0  0  0  0  0  0  0  0  0  0
   -2.1345    2.8026    0.0000 C   0  0  0  0  0  0  0  0  0  0  0  0
   -1.6967    3.6618    0.0000 C   0  0  0  0  0  0  0  0  0  0  0  0
   -0.7797    3.9598    0.0000 C   0  0  0  0  0  0  0  0  0  0  0  0
   -1.5417    5.9156    0.0000 C   0  0  0  0  0  0  0  0  0  0  0  0
    0.2789    5.7723    0.0000 C   0  0  0  0  0  0  0  0  0  0  0  0
   -0.1846    7.1989    0.0000 C   0  0  0  0  0  0  0  0  0  0  0  0
    0.0795    3.5220    0.0000 C   0  0  0  0  0  0  0  0  0  0  0  0
    1.7524    4.9508    0.0000 O   0  0  0  0  0  0  0  0  0  0  0  0
    0.3774    2.6050    0.0000 C   0  0  0  0  0  0  0  0  0  0  0  0
    2.5707    2.4323    0.0000 C   0  0  0  0  0  0  0  0  0  0  0  0
    0.3943    1.2135    0.0000 C   0  0  0  0  0  0  0  0  0  0  0  0
    1.2760    0.0000    0.0000 C   0  0  0  0  0  0  0  0  0  0  0  0
    0.3943   -1.2135    0.0000 C   0  0  0  0  0  0  0  0  0  0  0  0
   -1.0323   -0.7500    0.0000 C   0  0  0  0  0  0  0  0  0  0  0  0
   -2.2458   -1.6317    0.0000 O   0  0  0  0  0  0  0  0  0  0  0  0
   -1.0323    0.7500    0.0000 C   0  0  0  0  0  0  0  0  0  0  0  0
   -2.3688    1.4310    0.0000 C   0  0  0  0  0  0  0  0  0  0  0  0
   -3.5094    0.4568    0.0000 C   0  0  0  0  0  0  0  0  0  0  0  0
   -1.6235    1.7866    0.0000 C   0  0  0  0  0  0  0  0  0  0  0  0
   -3.3143    3.7624    0.0000 C   0  0  0  0  0  0  0  0  0  0  0  0
   -0.8538    2.1647    0.0000 C   0  0  0  0  0  0  0  0  0  0  0  0
   -0.2544    1.7206    0.0000 C   0  0  0  0  0  0  0  0  0  0  0  0
  1  2  1  0
  2  3  1  0
  3  4  1  0
  4  5  1  0
  3  6  1  0
  6  7  1  0
  7  8  1  0
  8  9  1  0
  9 10  1  0
 10 11  2  0
 10 12  1  0
 12 13  1  0
 13 14  1  0
 14 15  1  0
 15 16  1  0
 15 17  1  0
 17 18  2  0
 15 19  1  0
 19 20  1  0
 19 21  1  0
 21 22  1  0
 21 23  1  0
 23 24  1  0
 24 25  1  0
 25 26  1  0
 26 27  2  0
 26 28  1  0
 28 29  1  0
 29 30  1  0
 29 31  1  0
 31 32  1  0
 31 33  1  0
 33 34  1  0
 29 13  1  0
 28 23  1  0
 34 23  1  0
M  END
$$$$
