
     RDKit          2D

 54 62  0  0  0  0  0  0  0  0999 V2000
   -7.2296    2.8340    0.0000 C   0  0  0  0  0  0  0  0  0  0  0  0
   -8.3443    3.8377    0.0000 C   0  0  0  0  0  0  0  0  0  0  0  0
   -8.0325    5.3050    0.0000 C   0  0  0  0  0  0  0  0  0  0  0  0
   -9.1472    6.3086    0.0000 C   0  0  0  0  0  0  0  0  0  0  0  0
   -8.8353    7.7759    0.0000 C   0  0  0  0  0  0  0  0  0  0  0  0
   -9.9500    8.7796    0.0000 C   0  0  0  0  0  0  0  0  0  0  0  0
   -7.4087    8.2394    0.0000 C   0  0  0  0  0  0  0  0  0  0  0  0
   -7.0969    9.7066    0.0000 O   0  0  0  0  0  0  0  0  0  0  0  0
   -5.6703   10.1701    0.0000 C   0  0  0  0  0  0  0  0  0  0  0  0
   -6.2940    7.2357    0.0000 C   0  0  0  0  0  0  0  0  0  0  0  0
   -4.8674    7.6992    0.0000 O   0  0  0  0  0  0  0  0  0  0  0  0
   -6.6059    5.7685    0.0000 C   0  0  0  0  0  0  0  0  0  0  0  0
   -5.4912    4.7648    0.0000 C   0  0  0  0  0  0  0  0  0  0  0  0
   -4.3764    3.7611    0.0000 C   0  0  0  0  0  0  0  0  0  0  0  0
   -4.6883    2.2939    0.0000 N   0  0  0  0  0  0  0  0  0  0  0  0
   -6.1149    1.8303    0.0000 C   0  0  0  0  0  0  0  0  0  0  0  0
   -6.4644    1.1139    0.0000 O   0  0  0  0  0  0  0  0  0  0  0  0
   -3.5736    1.2902    0.0000 C   0  0  0  0  0  0  0  0  0  0  0  0
   -5.2581    0.2266    0.0000 C   0  0  0  0  0  0  0  0  0  0  0  0
   -6.5572    0.9766    0.0000 O   0  0  0  0  0  0  0  0  0  0  0  0
   -7.1673    2.3469    0.0000 C   0  0  0  0  0  0  0  0  0  0  0  0
   -8.6590    2.1901    0.0000 O   0  0  0  0  0  0  0  0  0  0  0  0
   -6.8554    3.8141    0.0000 C   0  0  0  0  0  0  0  0  0  0  0  0
   -5.7407    4.8178    0.0000 C   0  0  0  0  0  0  0  0  0  0  0  0
   -4.2489    4.9746    0.0000 S   0  0  0  0  0  0  0  0  0  0  0  0
   -2.9499    4.2246    0.0000 C   0  0  0  0  0  0  0  0  0  0  0  0
   -1.8351    3.2209    0.0000 C   0  0  0  0  0  0  0  0  0  0  0  0
   -0.4086    3.6844    0.0000 C   0  0  0  0  0  0  0  0  0  0  0  0
   -0.0967    5.1517    0.0000 O   0  0  0  0  0  0  0  0  0  0  0  0
    1.3299    5.6152    0.0000 C   0  0  0  0  0  0  0  0  0  0  0  0
    1.6418    7.0824    0.0000 C   0  0  0  0  0  0  0  0  0  0  0  0
    2.4446    4.6115    0.0000 O   0  0  0  0  0  0  0  0  0  0  0  0
    0.7062    2.6807    0.0000 C   0  0  0  0  0  0  0  0  0  0  0  0
    2.1328    3.1443    0.0000 C   0  0  0  0  0  0  0  0  0  0  0  0
    0.3943    1.2135    0.0000 C   0  0  0  0  0  0  0  0  0  0  0  0
    1.2760    0.0000    0.0000 O   0  0  0  0  0  0  0  0  0  0  0  0
    0.3943   -1.2135    0.0000 C   0  0  0  0  0  0  0  0  0  0  0  0
   -1.0323   -0.7500    0.0000 O   0  0  0  0  0  0  0  0  0  0  0  0
   -1.0323    0.7500    0.0000 C   0  0  0  0  0  0  0  0  0  0  0  0
   -2.1470    1.7537    0.0000 C   0  0  0  0  0  0  0  0  0  0  0  0
   -6.8554    5.3141    0.0000 N   0  0  0  0  0  0  0  0  0  0  0  0
   -8.1544    6.0641    0.0000 C   0  0  0  0  0  0  0  0  0  0  0  0
   -9.4535    5.3141    0.0000 C   0  0  0  0  0  0  0  0  0  0  0  0
   -9.4535    3.8141    0.0000 C   0  0  0  0  0  0  0  0  0  0  0  0
  -10.7525    3.0641    0.0000 C   0  0  0  0  0  0  0  0  0  0  0  0
  -10.7525    1.5641    0.0000 C   0  0  0  0  0  0  0  0  0  0  0  0
  -12.0515    0.8141    0.0000 O   0  0  0  0  0  0  0  0  0  0  0  0
   -9.4535    0.8141    0.0000 C   0  0  0  0  0  0  0  0  0  0  0  0
   -9.4535   -0.6859    0.0000 O   0  0  0  0  0  0  0  0  0  0  0  0
  -10.7525   -1.4359    0.0000 C   0  0  0  0  0  0  0  0  0  0  0  0
   -8.1544    1.5641    0.0000 C   0  0  0  0  0  0  0  0  0  0  0  0
   -8.1544    3.0641    0.0000 C   0  0  0  0  0  0  0  0  0  0  0  0
   -6.9177    4.3013    0.0000 N   0  0  0  0  0  0  0  0  0  0  0  0
   -7.7565    5.5449    0.0000 C   0  0  0  0  0  0  0  0  0  0  0  0
  1  2  1  0
  2  3  1  0
  3  4  2  0
  4  5  1  0
  5  6  1  0
  5  7  2  0
  7  8  1  0
  8  9  1  0
  7 10  1  0
 10 11  1  0
 10 12  2  0
 12 13  1  0
 13 14  1  0
 14 15  1  0
 15 16  1  0
 16 17  1  0
 15 18  1  0
 18 19  1  0
 19 20  1  0
 20 21  1  0
 21 22  2  0
 21 23  1  0
 23 24  1  0
 24 25  1  0
 25 26  1  0
 26 27  1  0
 27 28  2  0
 28 29  1  0
 29 30  1  0
 30 31  1  0
 30 32  2  0
 28 33  1  0
 33 34  1  0
 33 35  2  0
 35 36  1  0
 36 37  1  0
 37 38  1  0
 38 39  1  0
 39 40  2  0
 23 41  1  0
 41 42  1  0
 42 43  1  0
 43 44  1  0
 44 45  2  0
 45 46  1  0
 46 47  1  0
 46 48  2  0
 48 49  1  0
 49 50  1  0
 48 51  1  0
 51 52  2  0
 13 53  1  0
 53 54  1  0
 16  1  1  0
 40 18  1  0
 52 44  1  0
 53  1  1  0
 12  3  1  0
 26 14  1  0
 40 27  1  0
 52 23  1  0
 39 35  1  0
M  END
$$$$
