
     RDKit          2D

 21 23  0  0  0  0  0  0  0  0999 V2000
    1.3432   -4.0899    0.0000 Cl  0  0  0  0  0  0  0  0  0  0  0  0
    1.5000   -2.5981    0.0000 Bi  0  0  0  0  0  5  0  0  0  0  0  0
    2.5037   -1.4834    0.0000 Cl  0  0  0  0  0  0  0  0  0  0  0  0
    0.7500   -1.2990    0.0000 C   0  0  0  0  0  0  0  0  0  0  0  0
    1.5000   -0.0000    0.0000 C   0  0  0  0  0  0  0  0  0  0  0  0
    0.7500    1.2990    0.0000 C   0  0  0  0  0  0  0  0  0  0  0  0
   -0.7500    1.2990    0.0000 C   0  0  0  0  0  0  0  0  0  0  0  0
   -1.5000    0.0000    0.0000 C   0  0  0  0  0  0  0  0  0  0  0  0
   -0.7500   -1.2990    0.0000 C   0  0  0  0  0  0  0  0  0  0  0  0
    0.0328   -2.9099    0.0000 C   0  0  0  0  0  0  0  0  0  0  0  0
   -0.9709   -1.7952    0.0000 C   0  0  0  0  0  0  0  0  0  0  0  0
   -2.4381   -2.1071    0.0000 C   0  0  0  0  0  0  0  0  0  0  0  0
   -2.9017   -3.5337    0.0000 C   0  0  0  0  0  0  0  0  0  0  0  0
   -1.8980   -4.6484    0.0000 C   0  0  0  0  0  0  0  0  0  0  0  0
   -0.4307   -4.3365    0.0000 C   0  0  0  0  0  0  0  0  0  0  0  0
    2.8703   -3.2082    0.0000 C   0  0  0  0  0  0  0  0  0  0  0  0
    3.0271   -4.7000    0.0000 C   0  0  0  0  0  0  0  0  0  0  0  0
    4.3974   -5.3101    0.0000 C   0  0  0  0  0  0  0  0  0  0  0  0
    5.6110   -4.4284    0.0000 C   0  0  0  0  0  0  0  0  0  0  0  0
    5.4542   -2.9366    0.0000 C   0  0  0  0  0  0  0  0  0  0  0  0
    4.0838   -2.3265    0.0000 C   0  0  0  0  0  0  0  0  0  0  0  0
  1  2  1  0
  2  3  1  0
  2  4  1  0
  4  5  2  0
  5  6  1  0
  6  7  2  0
  7  8  1  0
  8  9  2  0
  2 10  1  0
 10 11  2  0
 11 12  1  0
 12 13  2  0
 13 14  1  0
 14 15  2  0
  2 16  1  0
 16 17  2  0
 17 18  1  0
 18 19  2  0
 19 20  1  0
 20 21  2  0
  9  4  1  0
 15 10  1  0
 21 16  1  0
M  END
$$$$
